
     RDKit          3D

121127  0  0  0  0  0  0  0  0999 V2000
   -3.5430   14.3600    2.1510 O   0  0  0  0  0  0  0  0  0  0  0  0
   -4.2760   13.6580    1.4640 C   0  0  0  0  0  0  0  0  0  0  0  0
   -4.5090   12.1940    1.8250 C   0  0  1  0  0  0  0  0  0  0  0  0
   -4.2760   11.9140    3.2640 N   0  0  0  0  0  0  0  0  0  0  0  0
   -4.7930   12.5880    4.3040 C   0  0  1  0  0  0  0  0  0  0  0  0
   -4.3030   11.9220    5.5140 C   0  0  0  0  0  0  0  0  0  0  0  0
   -4.4640   12.2320    6.8670 C   0  0  2  0  0  0  0  0  0  0  0  0
   -3.9860   11.2900    7.7830 C   0  0  1  0  0  0  0  0  0  0  0  0
   -3.2010   10.1270    7.4540 C   0  0  2  0  0  0  0  0  0  0  0  0
   -3.0140    9.8540    6.0620 C   0  0  0  0  0  0  0  0  0  0  0  0
   -2.3660    8.8020    5.5040 N   0  0  0  0  0  0  0  0  0  0  0  0
   -1.1800    8.2340    6.1560 C   0  0  0  0  0  0  0  0  0  0  0  0
   -0.5780    7.2430    5.1290 C   0  0  0  0  0  0  0  0  0  0  0  0
   -0.6940    7.8160    3.8140 O   0  0  0  0  0  0  0  0  0  0  0  0
    0.0240    7.0580    2.7590 C   0  0  0  0  0  0  0  0  0  0  0  0
   -0.6040    5.6280    2.6120 C   0  0  0  0  0  0  0  0  0  0  0  0
    0.1020    4.7270    3.3980 O   0  0  0  0  0  0  0  0  0  0  0  0
    0.2470    3.3800    2.9760 C   0  0  0  0  0  0  0  0  0  0  0  0
    1.5550    3.2280    2.1330 C   0  0  0  0  0  0  0  0  0  0  0  0
    1.4550    1.9510    1.5750 O   0  0  0  0  0  0  0  0  0  0  0  0
    2.5770    1.5590    0.7800 C   0  0  0  0  0  0  0  0  0  0  0  0
    2.0650    0.1730    0.3160 C   0  0  0  0  0  0  0  0  0  0  0  0
    2.9720   -0.3860   -0.7230 C   0  0  0  0  0  0  0  0  0  0  0  0
    2.7890   -1.6810   -1.0840 N   0  0  0  0  0  0  0  0  0  0  0  0
    1.4820   -2.3510   -1.0460 C   0  0  0  0  0  0  0  0  0  0  0  0
    1.4690   -3.4960   -2.0330 C   0  0  0  0  0  0  0  0  0  0  0  0
    3.9510   -2.5320   -1.4570 C   0  0  0  0  0  0  0  0  0  0  0  0
    3.6870   -4.0740   -1.1430 C   0  0  0  0  0  0  0  0  0  0  0  0
    2.3960   -4.5620   -1.7200 N   0  0  0  0  0  0  0  0  0  0  0  0
    2.3890   -5.8980   -2.2540 C   0  0  2  0  0  0  0  0  0  0  0  0
    1.4500   -6.2170   -3.2340 C   0  0  0  0  0  0  0  0  0  0  0  0
    1.3180   -7.5100   -3.6830 C   0  0  0  0  0  0  0  0  0  0  0  0
    3.1010   -6.9410   -1.6810 C   0  0  1  0  0  0  0  0  0  0  0  0
    3.1120   -8.2430   -2.1880 C   0  0  1  0  0  0  0  0  0  0  0  0
    2.2220   -8.5560   -3.2070 C   0  0  0  0  0  0  0  0  0  0  0  0
    2.1520   -9.9260   -3.8490 C   0  0  2  0  0  0  0  0  0  0  0  0
    1.9580  -10.0340   -5.1390 N   0  0  0  0  0  0  0  0  0  0  0  0
    2.9080  -10.6860   -5.9980 N   0  0  0  0  0  0  0  0  0  0  0  0
    3.1460  -10.1260   -7.2960 C   0  0  0  0  0  0  0  0  0  0  0  0
    2.1710   -9.2440   -7.6690 N   0  0  0  0  0  0  0  0  0  0  0  0
    1.8870   -8.5400   -8.8910 C   0  0  0  0  0  0  0  0  0  0  0  0
    4.1290  -10.3130   -8.0500 O   0  0  0  0  0  0  0  0  0  0  0  0
    3.9080  -11.5870   -5.5100 C   0  0  1  0  0  0  0  0  0  0  0  0
    5.0890  -10.9420   -4.7490 C   0  0  0  0  0  0  0  0  0  0  0  0
    3.1710  -12.7560   -4.6960 C   0  0  0  0  0  0  0  0  0  0  0  0
    2.5690  -12.4480   -3.2940 C   0  0  2  0  0  0  0  0  0  0  0  0
    2.3370  -13.5140   -2.4040 C   0  0  0  0  0  0  0  0  0  0  0  0
    1.7880  -13.3080   -1.1190 C   0  0  2  0  0  0  0  0  0  0  0  0
    1.5210  -14.3840   -0.2250 O   0  0  0  0  0  0  0  0  0  0  0  0
    1.4690  -15.7210   -0.4480 C   0  0  0  0  0  0  0  0  0  0  0  0
    1.3770  -12.0250   -0.7510 C   0  0  1  0  0  0  0  0  0  0  0  0
    0.7930  -11.7500    0.4920 O   0  0  0  0  0  0  0  0  0  0  0  0
   -0.1030  -12.6510    1.1360 C   0  0  0  0  0  0  0  0  0  0  0  0
    1.6470  -10.9340   -1.6220 C   0  0  0  0  0  0  0  0  0  0  0  0
    2.1740  -11.1210   -2.8590 C   0  0  2  0  0  0  0  0  0  0  0  0
    3.8600    0.2700   -1.2590 O   0  0  0  0  0  0  0  0  0  0  0  0
   -3.5680   10.7880    5.1500 C   0  0  0  0  0  0  0  0  0  0  0  0
   -3.5000   10.8040    3.6950 C   0  0  1  0  0  0  0  0  0  0  0  0
   -2.9820   10.0190    2.9380 O   0  0  0  0  0  0  0  0  0  0  0  0
   -5.4720   13.5920    4.2570 O   0  0  0  0  0  0  0  0  0  0  0  0
   -5.9690   11.7740    1.4350 C   0  0  0  0  0  0  0  0  0  0  0  0
   -6.1820   12.1950   -0.0250 C   0  0  0  0  0  0  0  0  0  0  0  0
   -4.9140   14.2200    0.3570 N   0  0  0  0  0  0  0  0  0  0  0  0
   -5.9160   13.6260   -0.3830 C   0  0  1  0  0  0  0  0  0  0  0  0
   -6.4510   14.1930   -1.3280 O   0  0  0  0  0  0  0  0  0  0  0  0
   -3.7710   11.6610    1.2130 H   0  0  0  0  0  0  0  0  0  0  0  0
   -5.0360   13.1320    7.0700 H   0  0  0  0  0  0  0  0  0  0  0  0
   -4.1090   11.4590    8.8490 H   0  0  0  0  0  0  0  0  0  0  0  0
   -2.8910    9.4910    8.2780 H   0  0  0  0  0  0  0  0  0  0  0  0
   -2.3760    8.7220    4.4960 H   0  0  0  0  0  0  0  0  0  0  0  0
   -0.5060    9.0780    6.3480 H   0  0  0  0  0  0  0  0  0  0  0  0
   -1.4080    7.7640    7.1200 H   0  0  0  0  0  0  0  0  0  0  0  0
    0.4860    7.1330    5.3700 H   0  0  0  0  0  0  0  0  0  0  0  0
   -1.1920    6.3340    5.1590 H   0  0  0  0  0  0  0  0  0  0  0  0
   -0.0780    7.4900    1.7560 H   0  0  0  0  0  0  0  0  0  0  0  0
    1.0720    6.7950    2.9470 H   0  0  0  0  0  0  0  0  0  0  0  0
   -1.5900    5.6950    3.0880 H   0  0  0  0  0  0  0  0  0  0  0  0
   -0.5080    5.3140    1.5650 H   0  0  0  0  0  0  0  0  0  0  0  0
    0.2920    2.7160    3.8480 H   0  0  0  0  0  0  0  0  0  0  0  0
   -0.5040    3.0260    2.2600 H   0  0  0  0  0  0  0  0  0  0  0  0
    1.6150    3.9800    1.3370 H   0  0  0  0  0  0  0  0  0  0  0  0
    2.3980    3.3390    2.8270 H   0  0  0  0  0  0  0  0  0  0  0  0
    2.6830    2.2280   -0.0830 H   0  0  0  0  0  0  0  0  0  0  0  0
    3.4300    1.3770    1.4450 H   0  0  0  0  0  0  0  0  0  0  0  0
    2.0670   -0.5320    1.1560 H   0  0  0  0  0  0  0  0  0  0  0  0
    1.0350    0.1910   -0.0630 H   0  0  0  0  0  0  0  0  0  0  0  0
    1.3390   -2.7720   -0.0430 H   0  0  0  0  0  0  0  0  0  0  0  0
    0.6910   -1.5930   -1.1020 H   0  0  0  0  0  0  0  0  0  0  0  0
    0.4620   -3.9270   -2.0960 H   0  0  0  0  0  0  0  0  0  0  0  0
    1.7600   -3.0470   -2.9910 H   0  0  0  0  0  0  0  0  0  0  0  0
    4.1200   -2.4410   -2.5370 H   0  0  0  0  0  0  0  0  0  0  0  0
    4.8240   -2.1690   -0.9000 H   0  0  0  0  0  0  0  0  0  0  0  0
    4.5130   -4.6330   -1.6000 H   0  0  0  0  0  0  0  0  0  0  0  0
    3.6640   -4.1880   -0.0520 H   0  0  0  0  0  0  0  0  0  0  0  0
    0.7830   -5.4700   -3.6540 H   0  0  0  0  0  0  0  0  0  0  0  0
    0.5460   -7.8190   -4.3810 H   0  0  0  0  0  0  0  0  0  0  0  0
    3.8710   -6.7870   -0.9310 H   0  0  0  0  0  0  0  0  0  0  0  0
    3.8540   -8.9590   -1.8470 H   0  0  0  0  0  0  0  0  0  0  0  0
    1.4630   -9.1210   -6.9560 H   0  0  0  0  0  0  0  0  0  0  0  0
    2.4940   -7.6290   -8.9710 H   0  0  0  0  0  0  0  0  0  0  0  0
    0.8310   -8.2500   -8.9580 H   0  0  0  0  0  0  0  0  0  0  0  0
    2.3550   -9.0870   -9.7190 H   0  0  0  0  0  0  0  0  0  0  0  0
    4.4020  -12.0040   -6.3960 H   0  0  0  0  0  0  0  0  0  0  0  0
    5.6180  -10.1880   -5.3450 H   0  0  0  0  0  0  0  0  0  0  0  0
    5.8390  -11.6950   -4.4740 H   0  0  0  0  0  0  0  0  0  0  0  0
    4.7640  -10.4050   -3.8500 H   0  0  0  0  0  0  0  0  0  0  0  0
    2.4010  -13.1910   -5.3440 H   0  0  0  0  0  0  0  0  0  0  0  0
    3.8820  -13.5880   -4.6180 H   0  0  0  0  0  0  0  0  0  0  0  0
    2.6120  -14.5150   -2.7230 H   0  0  0  0  0  0  0  0  0  0  0  0
    1.2290  -16.2510    0.4820 H   0  0  0  0  0  0  0  0  0  0  0  0
    2.4670  -15.9970   -0.8100 H   0  0  0  0  0  0  0  0  0  0  0  0
    0.7060  -16.0330   -1.1720 H   0  0  0  0  0  0  0  0  0  0  0  0
   -0.7550  -12.0800    1.8090 H   0  0  0  0  0  0  0  0  0  0  0  0
    0.4900  -13.2990    1.7940 H   0  0  0  0  0  0  0  0  0  0  0  0
   -0.6940  -13.3210    0.5000 H   0  0  0  0  0  0  0  0  0  0  0  0
    1.2910   -9.9800   -1.2440 H   0  0  0  0  0  0  0  0  0  0  0  0
   -6.1500   10.7210    1.6840 H   0  0  0  0  0  0  0  0  0  0  0  0
   -6.6820   12.3770    2.0110 H   0  0  0  0  0  0  0  0  0  0  0  0
   -5.5760   11.6000   -0.7190 H   0  0  0  0  0  0  0  0  0  0  0  0
   -7.2420   12.2230   -0.3070 H   0  0  0  0  0  0  0  0  0  0  0  0
   -4.6930   15.1800    0.1220 H   0  0  0  0  0  0  0  0  0  0  0  0
  2  1  1  0
  3  2  1  0
  4  3  1  0
  5  4  1  0
  6  5  1  0
  7  6  1  0
  8  7  1  0
  9  8  1  0
 10  9  1  0
 11 10  1  0
 12 11  1  0
 13 12  1  0
 14 13  1  0
 15 14  1  0
 16 15  1  0
 17 16  1  0
 18 17  1  0
 19 18  1  0
 20 19  1  0
 21 20  1  0
 22 21  1  0
 23 22  1  0
 24 23  1  0
 25 24  1  0
 26 25  1  0
 27 24  1  0
 28 27  1  0
 29 28  1  0
 29 26  1  0
 30 29  1  1
 31 30  1  0
 32 31  1  0
 33 30  1  0
 34 33  1  0
 35 34  1  0
 35 32  1  0
 36 35  1  1
 37 36  1  0
 38 37  1  0
 39 38  1  0
 40 39  1  0
 41 40  1  0
 42 39  1  0
 43 38  1  0
 44 43  1  0
 45 43  1  0
 46 45  1  0
 46 47  1  6
 48 47  1  0
 48 49  1  6
 50 49  1  0
 51 48  1  0
 51 52  1  1
 53 52  1  0
 54 51  1  0
 55 54  1  6
 55 46  1  0
 55 36  1  0
 56 23  1  0
 57 10  1  0
 57  6  1  0
 58 57  1  0
 58  4  1  0
 58 59  1  6
  5 60  1  1
 61  3  1  0
 62 61  1  0
 63  2  1  0
 64 62  1  0
 64 63  1  0
 64 65  1  6
  3 66  1  6
  7 67  1  6
  8 68  1  1
  9 69  1  6
 70 11  1  0
 71 12  1  0
 72 12  1  0
 73 13  1  0
 74 13  1  0
 75 15  1  0
 76 15  1  0
 77 16  1  0
 78 16  1  0
 79 18  1  0
 80 18  1  0
 81 19  1  0
 82 19  1  0
 83 21  1  0
 84 21  1  0
 85 22  1  0
 86 22  1  0
 87 25  1  0
 88 25  1  0
 89 26  1  0
 90 26  1  0
 91 27  1  0
 92 27  1  0
 93 28  1  0
 94 28  1  0
 95 31  1  0
 96 32  1  0
 33 97  1  6
 34 98  1  6
 99 40  1  0
100 41  1  0
101 41  1  0
102 41  1  0
 43103  1  6
104 44  1  0
105 44  1  0
106 44  1  0
107 45  1  0
108 45  1  0
109 47  1  0
110 50  1  0
111 50  1  0
112 50  1  0
113 53  1  0
114 53  1  0
115 53  1  0
116 54  1  0
117 61  1  0
118 61  1  0
119 62  1  0
120 62  1  0
121 63  1  0
M  END
$$$$

     RDKit          3D

121127  0  0  0  0  0  0  0  0999 V2000
   -3.8870   14.1090    2.9370 O   0  0  0  0  0  0  0  0  0  0  0  0
   -4.3690   13.4990    2.0470 C   0  0  2  0  0  0  0  0  0  0  0  0
   -4.0640   12.0240    1.8560 C   0  0  1  0  0  0  0  0  0  0  0  0
   -3.9280   11.3240    3.1520 N   0  0  0  0  0  0  0  0  0  0  0  0
   -4.9760   11.2360    4.0070 C   0  0  2  0  0  0  0  0  0  0  0  0
   -4.4930   10.3560    5.1340 C   0  0  0  0  0  0  0  0  0  0  0  0
   -5.1440    9.9280    6.3160 C   0  0  1  0  0  0  0  0  0  0  0  0
   -4.3680    9.2100    7.2250 C   0  0  1  0  0  0  0  0  0  0  0  0
   -3.0340    8.8440    6.9330 C   0  0  1  0  0  0  0  0  0  0  0  0
   -2.4250    9.2550    5.7220 C   0  0  1  0  0  0  0  0  0  0  0  0
   -1.1770    8.7470    5.2920 N   0  0  0  0  0  0  0  0  0  0  0  0
   -0.3290    7.5930    5.7680 C   0  0  0  0  0  0  0  0  0  0  0  0
    0.5460    7.0900    4.7540 C   0  0  0  0  0  0  0  0  0  0  0  0
   -0.1370    6.6290    3.5870 O   0  0  0  0  0  0  0  0  0  0  0  0
    0.6270    5.8570    2.6440 C   0  0  0  0  0  0  0  0  0  0  0  0
    0.7140    4.3620    3.1460 C   0  0  0  0  0  0  0  0  0  0  0  0
    1.8330    4.2690    4.0370 O   0  0  0  0  0  0  0  0  0  0  0  0
    2.1560    3.0840    4.7880 C   0  0  0  0  0  0  0  0  0  0  0  0
    3.2540    2.2810    3.9610 C   0  0  0  0  0  0  0  0  0  0  0  0
    2.5320    1.5670    2.9110 O   0  0  0  0  0  0  0  0  0  0  0  0
    3.3620    1.0680    1.8540 C   0  0  0  0  0  0  0  0  0  0  0  0
    2.6540    0.0950    0.9450 C   0  0  0  0  0  0  0  0  0  0  0  0
    3.6170   -0.4410   -0.1330 C   0  0  2  0  0  0  0  0  0  0  0  0
    3.3140   -1.5850   -0.7530 N   0  0  0  0  0  0  0  0  0  0  0  0
    1.9300   -2.1450   -0.6730 C   0  0  0  0  0  0  0  0  0  0  0  0
    1.6300   -3.1600   -1.7550 C   0  0  0  0  0  0  0  0  0  0  0  0
    4.2620   -2.1580   -1.7810 C   0  0  0  0  0  0  0  0  0  0  0  0
    4.1060   -3.7230   -1.8000 C   0  0  0  0  0  0  0  0  0  0  0  0
    2.7190   -4.1740   -1.9450 N   0  0  0  0  0  0  0  0  0  0  0  0
    2.5710   -5.3690   -2.6570 C   0  0  2  0  0  0  0  0  0  0  0  0
    1.6760   -5.5550   -3.7380 C   0  0  0  0  0  0  0  0  0  0  0  0
    1.4720   -6.8290   -4.3380 C   0  0  0  0  0  0  0  0  0  0  0  0
    3.3110   -6.5200   -2.2240 C   0  0  2  0  0  0  0  0  0  0  0  0
    3.1170   -7.8410   -2.7890 C   0  0  2  0  0  0  0  0  0  0  0  0
    2.1820   -7.9110   -3.8310 C   0  0  1  0  0  0  0  0  0  0  0  0
    1.7840   -9.2910   -4.2690 C   0  0  2  0  0  0  0  0  0  0  0  0
    1.7600   -9.6590   -5.5240 N   0  0  0  0  0  0  0  0  0  0  0  0
    2.7210  -10.4990   -5.8910 N   0  0  0  0  0  0  0  0  0  0  0  0
    3.5600  -10.2900   -6.9760 C   0  0  0  0  0  0  0  0  0  0  0  0
    3.3790   -9.0670   -7.6140 N   0  0  0  0  0  0  0  0  0  0  0  0
    3.9810   -8.7080   -8.8350 C   0  0  0  0  0  0  0  0  0  0  0  0
    4.4340  -11.0620   -7.3320 O   0  0  0  0  0  0  0  0  0  0  0  0
    2.8010  -11.8300   -5.2050 C   0  0  1  0  0  0  0  0  0  0  0  0
    3.8650  -11.9400   -4.1420 C   0  0  0  0  0  0  0  0  0  0  0  0
    1.4750  -12.2990   -4.6870 C   0  0  0  0  0  0  0  0  0  0  0  0
    0.7970  -11.5860   -3.4740 C   0  0  2  0  0  0  0  0  0  0  0  0
   -0.0580  -12.3920   -2.6530 C   0  0  2  0  0  0  0  0  0  0  0  0
   -0.8800  -11.7820   -1.6670 C   0  0  1  0  0  0  0  0  0  0  0  0
   -1.4570  -12.4750   -0.6240 O   0  0  0  0  0  0  0  0  0  0  0  0
   -1.0100  -13.8740   -0.2920 C   0  0  0  0  0  0  0  0  0  0  0  0
   -0.9420  -10.3300   -1.6920 C   0  0  1  0  0  0  0  0  0  0  0  0
   -1.6400   -9.5300   -0.8460 O   0  0  0  0  0  0  0  0  0  0  0  0
   -2.1660  -10.0780    0.4280 C   0  0  0  0  0  0  0  0  0  0  0  0
   -0.1480   -9.5970   -2.5440 C   0  0  2  0  0  0  0  0  0  0  0  0
    0.8590  -10.1440   -3.3050 C   0  0  2  0  0  0  0  0  0  0  0  0
    4.6750    0.0920   -0.3380 O   0  0  0  0  0  0  0  0  0  0  0  0
   -3.2170    9.9610    4.8610 C   0  0  2  0  0  0  0  0  0  0  0  0
   -2.7970   10.6580    3.6340 C   0  0  1  0  0  0  0  0  0  0  0  0
   -1.7650   10.4390    3.0250 O   0  0  0  0  0  0  0  0  0  0  0  0
   -6.1010   11.6730    3.9030 O   0  0  0  0  0  0  0  0  0  0  0  0
   -4.9700   11.2960    0.8380 C   0  0  0  0  0  0  0  0  0  0  0  0
   -5.2200   12.1890   -0.3900 C   0  0  0  0  0  0  0  0  0  0  0  0
   -5.0720   14.1320    1.0520 N   0  0  0  0  0  0  0  0  0  0  0  0
   -5.4930   13.6350   -0.1360 C   0  0  0  0  0  0  0  0  0  0  0  0
   -6.0050   14.3500   -0.9500 O   0  0  0  0  0  0  0  0  0  0  0  0
   -3.0630   12.1300    1.4210 H   0  0  0  0  0  0  0  0  0  0  0  0
   -6.0860   10.3290    6.6780 H   0  0  0  0  0  0  0  0  0  0  0  0
   -4.6760    9.0460    8.2540 H   0  0  0  0  0  0  0  0  0  0  0  0
   -2.3820    8.3330    7.6350 H   0  0  0  0  0  0  0  0  0  0  0  0
   -0.9400    9.1070    4.3770 H   0  0  0  0  0  0  0  0  0  0  0  0
    0.3410    8.0200    6.5240 H   0  0  0  0  0  0  0  0  0  0  0  0
   -1.0300    6.7760    5.9820 H   0  0  0  0  0  0  0  0  0  0  0  0
    1.2620    7.8580    4.4350 H   0  0  0  0  0  0  0  0  0  0  0  0
    1.1250    6.2790    5.2130 H   0  0  0  0  0  0  0  0  0  0  0  0
    0.0650    5.7890    1.7040 H   0  0  0  0  0  0  0  0  0  0  0  0
    1.5750    6.3180    2.3410 H   0  0  0  0  0  0  0  0  0  0  0  0
   -0.1650    4.1200    3.7560 H   0  0  0  0  0  0  0  0  0  0  0  0
    0.9130    3.6570    2.3290 H   0  0  0  0  0  0  0  0  0  0  0  0
    2.7270    3.3830    5.6760 H   0  0  0  0  0  0  0  0  0  0  0  0
    1.3400    2.4440    5.1460 H   0  0  0  0  0  0  0  0  0  0  0  0
    3.9000    3.1040    3.6290 H   0  0  0  0  0  0  0  0  0  0  0  0
    3.8380    1.5700    4.5600 H   0  0  0  0  0  0  0  0  0  0  0  0
    3.8540    1.9260    1.3780 H   0  0  0  0  0  0  0  0  0  0  0  0
    4.1540    0.4620    2.3110 H   0  0  0  0  0  0  0  0  0  0  0  0
    2.4030   -0.8040    1.5210 H   0  0  0  0  0  0  0  0  0  0  0  0
    1.7880    0.6260    0.5310 H   0  0  0  0  0  0  0  0  0  0  0  0
    1.8170   -2.6060    0.3160 H   0  0  0  0  0  0  0  0  0  0  0  0
    1.1920   -1.3340   -0.7110 H   0  0  0  0  0  0  0  0  0  0  0  0
    0.7030   -3.6550   -1.4390 H   0  0  0  0  0  0  0  0  0  0  0  0
    1.3860   -2.6180   -2.6770 H   0  0  0  0  0  0  0  0  0  0  0  0
    4.0730   -1.6000   -2.7060 H   0  0  0  0  0  0  0  0  0  0  0  0
    5.2660   -1.9180   -1.4120 H   0  0  0  0  0  0  0  0  0  0  0  0
    4.7130   -4.1790   -2.5910 H   0  0  0  0  0  0  0  0  0  0  0  0
    4.4310   -4.0720   -0.8120 H   0  0  0  0  0  0  0  0  0  0  0  0
    1.1910   -4.6310   -4.0370 H   0  0  0  0  0  0  0  0  0  0  0  0
    0.8050   -6.8860   -5.1930 H   0  0  0  0  0  0  0  0  0  0  0  0
    3.9970   -6.4220   -1.3880 H   0  0  0  0  0  0  0  0  0  0  0  0
    3.5830   -8.7100   -2.3340 H   0  0  0  0  0  0  0  0  0  0  0  0
    2.6670   -8.4830   -7.1910 H   0  0  0  0  0  0  0  0  0  0  0  0
    4.2930   -7.6560   -8.8510 H   0  0  0  0  0  0  0  0  0  0  0  0
    3.4660   -9.0760   -9.7310 H   0  0  0  0  0  0  0  0  0  0  0  0
    4.9080   -9.2890   -8.9070 H   0  0  0  0  0  0  0  0  0  0  0  0
    3.1030  -12.5010   -6.0190 H   0  0  0  0  0  0  0  0  0  0  0  0
    4.8500  -11.9510   -4.6240 H   0  0  0  0  0  0  0  0  0  0  0  0
    3.8370  -12.9360   -3.6830 H   0  0  0  0  0  0  0  0  0  0  0  0
    3.7990  -11.1190   -3.4170 H   0  0  0  0  0  0  0  0  0  0  0  0
    0.7030  -12.2740   -5.4650 H   0  0  0  0  0  0  0  0  0  0  0  0
    1.5810  -13.3660   -4.4540 H   0  0  0  0  0  0  0  0  0  0  0  0
    0.0810  -13.4620   -2.7780 H   0  0  0  0  0  0  0  0  0  0  0  0
   -1.1760  -14.5730   -1.1210 H   0  0  0  0  0  0  0  0  0  0  0  0
   -1.5040  -14.2810    0.5990 H   0  0  0  0  0  0  0  0  0  0  0  0
    0.0640  -13.9170   -0.0710 H   0  0  0  0  0  0  0  0  0  0  0  0
   -2.6600   -9.3180    1.0470 H   0  0  0  0  0  0  0  0  0  0  0  0
   -1.4210  -10.5810    1.0570 H   0  0  0  0  0  0  0  0  0  0  0  0
   -3.0150  -10.7270    0.1820 H   0  0  0  0  0  0  0  0  0  0  0  0
   -0.1070   -8.5240   -2.3850 H   0  0  0  0  0  0  0  0  0  0  0  0
   -4.3830   10.3900    0.6430 H   0  0  0  0  0  0  0  0  0  0  0  0
   -5.9780   11.1530    1.2480 H   0  0  0  0  0  0  0  0  0  0  0  0
   -4.3390   12.0570   -1.0300 H   0  0  0  0  0  0  0  0  0  0  0  0
   -6.0390   11.7460   -0.9700 H   0  0  0  0  0  0  0  0  0  0  0  0
   -5.3930   15.0470    1.3450 H   0  0  0  0  0  0  0  0  0  0  0  0
  2  1  1  6
  3  2  1  0
  4  3  1  0
  5  4  1  0
  6  5  1  0
  7  6  1  0
  8  7  1  0
  9  8  1  0
 10  9  1  0
 10 11  1  6
 12 11  1  0
 13 12  1  0
 14 13  1  0
 15 14  1  0
 16 15  1  0
 17 16  1  0
 18 17  1  0
 19 18  1  0
 20 19  1  0
 21 20  1  0
 22 21  1  0
 23 22  1  0
 24 23  1  0
 25 24  1  0
 26 25  1  0
 27 24  1  0
 28 27  1  0
 29 28  1  0
 29 26  1  0
 30 29  1  1
 31 30  1  0
 32 31  1  0
 33 30  1  0
 34 33  1  0
 35 34  1  0
 35 32  1  1
 36 35  1  0
 36 37  1  6
 38 37  1  0
 39 38  1  0
 40 39  1  0
 41 40  1  0
 42 39  1  0
 43 38  1  0
 44 43  1  0
 45 43  1  0
 46 45  1  6
 47 46  1  0
 48 47  1  0
 48 49  1  1
 50 49  1  0
 51 48  1  0
 51 52  1  1
 53 52  1  0
 54 51  1  0
 55 46  1  0
 55 54  1  0
 55 36  1  6
 23 56  1  1
 57  6  1  1
 57 10  1  0
 58 57  1  0
 58  4  1  0
 58 59  1  6
  5 60  1  6
 61  3  1  0
 62 61  1  0
 63  2  1  0
 64 63  1  0
 64 62  1  0
 65 64  1  0
  3 66  1  6
  7 67  1  1
  8 68  1  1
  9 69  1  1
 70 11  1  0
 71 12  1  0
 72 12  1  0
 73 13  1  0
 74 13  1  0
 75 15  1  0
 76 15  1  0
 77 16  1  0
 78 16  1  0
 79 18  1  0
 80 18  1  0
 81 19  1  0
 82 19  1  0
 83 21  1  0
 84 21  1  0
 85 22  1  0
 86 22  1  0
 87 25  1  0
 88 25  1  0
 89 26  1  0
 90 26  1  0
 91 27  1  0
 92 27  1  0
 93 28  1  0
 94 28  1  0
 95 31  1  0
 96 32  1  0
 33 97  1  1
 34 98  1  1
 99 40  1  0
100 41  1  0
101 41  1  0
102 41  1  0
 43103  1  6
104 44  1  0
105 44  1  0
106 44  1  0
107 45  1  0
108 45  1  0
 47109  1  1
110 50  1  0
111 50  1  0
112 50  1  0
113 53  1  0
114 53  1  0
115 53  1  0
 54116  1  1
117 61  1  0
118 61  1  0
119 62  1  0
120 62  1  0
121 63  1  0
M  END
$$$$

     RDKit          3D

121127  0  0  0  0  0  0  0  0999 V2000
   -3.2740   14.0560    2.0540 O   0  0  0  0  0  0  0  0  0  0  0  0
   -3.9020   13.3590    1.3050 C   0  0  0  0  0  0  0  0  0  0  0  0
   -4.3460   11.8600    1.4900 C   0  0  1  0  0  0  0  0  0  0  0  0
   -4.2730   11.3050    2.8760 N   0  0  0  0  0  0  0  0  0  0  0  0
   -4.9970   11.7170    3.9570 C   0  0  2  0  0  0  0  0  0  0  0  0
   -4.6570   10.7590    5.0430 C   0  0  0  0  0  0  0  0  0  0  0  0
   -5.0760   10.6700    6.3850 C   0  0  1  0  0  0  0  0  0  0  0  0
   -4.4530    9.7330    7.2240 C   0  0  1  0  0  0  0  0  0  0  0  0
   -3.4830    8.8730    6.6370 C   0  0  2  0  0  0  0  0  0  0  0  0
   -3.2620    8.8140    5.2280 C   0  0  2  0  0  0  0  0  0  0  0  0
   -2.4880    7.8790    4.6020 N   0  0  0  0  0  0  0  0  0  0  0  0
   -2.1670    6.5690    5.1880 C   0  0  0  0  0  0  0  0  0  0  0  0
   -1.1590    5.8560    4.2470 C   0  0  0  0  0  0  0  0  0  0  0  0
   -1.7050    5.7320    2.9710 O   0  0  0  0  0  0  0  0  0  0  0  0
   -0.8080    5.5050    1.8470 C   0  0  0  0  0  0  0  0  0  0  0  0
   -0.0650    4.2660    2.0530 C   0  0  0  0  0  0  0  0  0  0  0  0
    1.0320    4.4660    3.0030 O   0  0  0  0  0  0  0  0  0  0  0  0
    1.9190    3.3220    3.1670 C   0  0  0  0  0  0  0  0  0  0  0  0
    2.8490    3.0930    2.0180 C   0  0  0  0  0  0  0  0  0  0  0  0
    2.2950    2.0190    1.1520 O   0  0  0  0  0  0  0  0  0  0  0  0
    3.2790    1.6130    0.1670 C   0  0  0  0  0  0  0  0  0  0  0  0
    2.4680    0.7420   -0.8070 C   0  0  0  0  0  0  0  0  0  0  0  0
    3.4260    0.1270   -1.8560 C   0  0  2  0  0  0  0  0  0  0  0  0
    2.9920   -1.0640   -2.4470 N   0  0  0  0  0  0  0  0  0  0  0  0
    1.6660   -1.6490   -2.4150 C   0  0  0  0  0  0  0  0  0  0  0  0
    1.6300   -2.9610   -1.5760 C   0  0  0  0  0  0  0  0  0  0  0  0
    3.9990   -2.0490   -2.8740 C   0  0  0  0  0  0  0  0  0  0  0  0
    4.0680   -3.2410   -1.8360 C   0  0  0  0  0  0  0  0  0  0  0  0
    2.7130   -3.9340   -1.8240 N   0  0  0  0  0  0  0  0  0  0  0  0
    2.5370   -5.2460   -2.1990 C   0  0  2  0  0  0  0  0  0  0  0  0
    1.3430   -5.6820   -2.8480 C   0  0  0  0  0  0  0  0  0  0  0  0
    1.1110   -7.0070   -3.1160 C   0  0  2  0  0  0  0  0  0  0  0  0
    3.4780   -6.2260   -1.7890 C   0  0  1  0  0  0  0  0  0  0  0  0
    3.3100   -7.5180   -2.2100 C   0  0  1  0  0  0  0  0  0  0  0  0
    2.1960   -7.9520   -2.8700 C   0  0  1  0  0  0  0  0  0  0  0  0
    2.0210   -9.4020   -3.3030 C   0  0  2  0  0  0  0  0  0  0  0  0
    1.8120   -9.7060   -4.4760 N   0  0  0  0  0  0  0  0  0  0  0  0
    2.6200  -10.5870   -5.1260 N   0  0  0  0  0  0  0  0  0  0  0  0
    3.2390  -10.1860   -6.3160 C   0  0  0  0  0  0  0  0  0  0  0  0
    3.1880   -8.8330   -6.5290 N   0  0  0  0  0  0  0  0  0  0  0  0
    4.0980   -8.0950   -7.3740 C   0  0  0  0  0  0  0  0  0  0  0  0
    3.7060  -10.9750   -7.0460 O   0  0  0  0  0  0  0  0  0  0  0  0
    2.7070  -12.0260   -4.5520 C   0  0  1  0  0  0  0  0  0  0  0  0
    4.0680  -12.3070   -3.9070 C   0  0  0  0  0  0  0  0  0  0  0  0
    1.5510  -12.4080   -3.6500 C   0  0  0  0  0  0  0  0  0  0  0  0
    1.4620  -11.6800   -2.2770 C   0  0  2  0  0  0  0  0  0  0  0  0
    1.0960  -12.4250   -1.1970 C   0  0  0  0  0  0  0  0  0  0  0  0
    0.8680  -11.9230    0.1140 C   0  0  1  0  0  0  0  0  0  0  0  0
    0.5890  -12.7630    1.1680 O   0  0  0  0  0  0  0  0  0  0  0  0
    0.5530  -14.2240    0.9170 C   0  0  0  0  0  0  0  0  0  0  0  0
    1.0190  -10.5430    0.2720 C   0  0  2  0  0  0  0  0  0  0  0  0
    0.6900   -9.8380    1.4890 O   0  0  0  0  0  0  0  0  0  0  0  0
    1.1560  -10.4110    2.7650 C   0  0  0  0  0  0  0  0  0  0  0  0
    1.3580   -9.7490   -0.8360 C   0  0  0  0  0  0  0  0  0  0  0  0
    1.5730  -10.2710   -2.1250 C   0  0  1  0  0  0  0  0  0  0  0  0
    4.5550    0.6210   -2.1060 O   0  0  0  0  0  0  0  0  0  0  0  0
   -3.7780    9.8610    4.5090 C   0  0  1  0  0  0  0  0  0  0  0  0
   -3.6660   10.1040    3.0940 C   0  0  0  0  0  0  0  0  0  0  0  0
   -3.1390    9.4130    2.2610 O   0  0  0  0  0  0  0  0  0  0  0  0
   -5.8720   12.5800    3.9660 O   0  0  0  0  0  0  0  0  0  0  0  0
   -5.8060   11.5940    0.9900 C   0  0  0  0  0  0  0  0  0  0  0  0
   -5.9030   12.0600   -0.4880 C   0  0  0  0  0  0  0  0  0  0  0  0
   -4.3590   13.8480    0.1480 N   0  0  0  0  0  0  0  0  0  0  0  0
   -5.2850   13.4390   -0.6470 C   0  0  2  0  0  0  0  0  0  0  0  0
   -5.7070   14.1860   -1.4770 O   0  0  0  0  0  0  0  0  0  0  0  0
   -3.7000   11.1940    0.9060 H   0  0  0  0  0  0  0  0  0  0  0  0
   -5.7460   11.4240    6.7880 H   0  0  0  0  0  0  0  0  0  0  0  0
   -4.5320    9.7420    8.3070 H   0  0  0  0  0  0  0  0  0  0  0  0
   -3.1560    7.9880    7.1750 H   0  0  0  0  0  0  0  0  0  0  0  0
   -2.3930    8.0090    3.6030 H   0  0  0  0  0  0  0  0  0  0  0  0
   -1.7040    6.7150    6.1720 H   0  0  0  0  0  0  0  0  0  0  0  0
   -3.0850    5.9910    5.3540 H   0  0  0  0  0  0  0  0  0  0  0  0
   -0.2730    6.5010    4.2770 H   0  0  0  0  0  0  0  0  0  0  0  0
   -0.8780    4.8910    4.6870 H   0  0  0  0  0  0  0  0  0  0  0  0
   -1.4360    5.4900    0.9480 H   0  0  0  0  0  0  0  0  0  0  0  0
   -0.0840    6.3250    1.7640 H   0  0  0  0  0  0  0  0  0  0  0  0
   -0.8390    3.5610    2.3790 H   0  0  0  0  0  0  0  0  0  0  0  0
    0.3100    4.0330    1.0490 H   0  0  0  0  0  0  0  0  0  0  0  0
    2.5310    3.5400    4.0510 H   0  0  0  0  0  0  0  0  0  0  0  0
    1.3900    2.3790    3.3530 H   0  0  0  0  0  0  0  0  0  0  0  0
    3.0120    4.0200    1.4550 H   0  0  0  0  0  0  0  0  0  0  0  0
    3.8670    2.8690    2.3590 H   0  0  0  0  0  0  0  0  0  0  0  0
    3.7220    2.4570   -0.3760 H   0  0  0  0  0  0  0  0  0  0  0  0
    4.0380    0.9430    0.5900 H   0  0  0  0  0  0  0  0  0  0  0  0
    2.0600   -0.0830   -0.2100 H   0  0  0  0  0  0  0  0  0  0  0  0
    1.7090    1.3130   -1.3560 H   0  0  0  0  0  0  0  0  0  0  0  0
    0.8620   -1.0520   -1.9660 H   0  0  0  0  0  0  0  0  0  0  0  0
    1.4100   -1.8910   -3.4530 H   0  0  0  0  0  0  0  0  0  0  0  0
    1.7180   -2.6540   -0.5260 H   0  0  0  0  0  0  0  0  0  0  0  0
    0.6030   -3.3480   -1.5920 H   0  0  0  0  0  0  0  0  0  0  0  0
    3.6620   -2.4760   -3.8270 H   0  0  0  0  0  0  0  0  0  0  0  0
    4.9920   -1.6000   -3.0000 H   0  0  0  0  0  0  0  0  0  0  0  0
    4.9100   -3.9030   -2.0730 H   0  0  0  0  0  0  0  0  0  0  0  0
    4.1580   -2.8040   -0.8330 H   0  0  0  0  0  0  0  0  0  0  0  0
    0.5910   -4.9310   -3.0720 H   0  0  0  0  0  0  0  0  0  0  0  0
    0.1670   -7.2500   -3.5940 H   0  0  0  0  0  0  0  0  0  0  0  0
    4.4190   -5.9830   -1.3050 H   0  0  0  0  0  0  0  0  0  0  0  0
    4.1810   -8.1420   -2.0270 H   0  0  0  0  0  0  0  0  0  0  0  0
    2.7410   -8.3300   -5.7720 H   0  0  0  0  0  0  0  0  0  0  0  0
    3.5000   -7.6510   -8.1790 H   0  0  0  0  0  0  0  0  0  0  0  0
    4.8360   -8.7220   -7.8890 H   0  0  0  0  0  0  0  0  0  0  0  0
    4.6780   -7.3790   -6.7780 H   0  0  0  0  0  0  0  0  0  0  0  0
    2.6340  -12.6950   -5.4180 H   0  0  0  0  0  0  0  0  0  0  0  0
    4.8050  -12.2210   -4.7150 H   0  0  0  0  0  0  0  0  0  0  0  0
    4.1580  -13.3390   -3.5480 H   0  0  0  0  0  0  0  0  0  0  0  0
    4.2620  -11.5870   -3.1030 H   0  0  0  0  0  0  0  0  0  0  0  0
    0.6360  -12.2170   -4.2250 H   0  0  0  0  0  0  0  0  0  0  0  0
    1.5830  -13.4930   -3.4880 H   0  0  0  0  0  0  0  0  0  0  0  0
    0.9230  -13.4890   -1.3250 H   0  0  0  0  0  0  0  0  0  0  0  0
    0.0660  -14.7560    1.7430 H   0  0  0  0  0  0  0  0  0  0  0  0
    1.5490  -14.6550    0.7550 H   0  0  0  0  0  0  0  0  0  0  0  0
   -0.0940  -14.5000    0.0760 H   0  0  0  0  0  0  0  0  0  0  0  0
    2.2530  -10.4210    2.7680 H   0  0  0  0  0  0  0  0  0  0  0  0
    0.7000  -11.3470    3.1110 H   0  0  0  0  0  0  0  0  0  0  0  0
    0.9190   -9.6950    3.5620 H   0  0  0  0  0  0  0  0  0  0  0  0
    1.4110   -8.6910   -0.5970 H   0  0  0  0  0  0  0  0  0  0  0  0
   -6.0790   10.5390    1.1180 H   0  0  0  0  0  0  0  0  0  0  0  0
   -6.5260   12.2670    1.4710 H   0  0  0  0  0  0  0  0  0  0  0  0
   -5.2680   11.4720   -1.1620 H   0  0  0  0  0  0  0  0  0  0  0  0
   -6.9190   12.0890   -0.9010 H   0  0  0  0  0  0  0  0  0  0  0  0
   -4.0300   14.7680   -0.1180 H   0  0  0  0  0  0  0  0  0  0  0  0
  2  1  1  0
  3  2  1  0
  4  3  1  0
  5  4  1  0
  6  5  1  0
  7  6  1  0
  8  7  1  0
  9  8  1  0
 10  9  1  0
 10 11  1  1
 12 11  1  0
 13 12  1  0
 14 13  1  0
 15 14  1  0
 16 15  1  0
 17 16  1  0
 18 17  1  0
 19 18  1  0
 20 19  1  0
 21 20  1  0
 22 21  1  0
 23 22  1  0
 24 23  1  0
 25 24  1  0
 26 25  1  0
 27 24  1  0
 28 27  1  0
 29 28  1  0
 29 26  1  0
 30 29  1  1
 31 30  1  0
 32 31  1  0
 33 30  1  0
 34 33  1  0
 35 34  1  0
 35 32  1  0
 35 36  1  1
 36 37  1  6
 38 37  1  0
 39 38  1  0
 40 39  1  0
 41 40  1  0
 42 39  1  0
 43 38  1  0
 44 43  1  0
 45 43  1  0
 46 45  1  0
 46 47  1  6
 48 47  1  0
 48 49  1  1
 50 49  1  0
 51 48  1  0
 51 52  1  6
 53 52  1  0
 54 51  1  0
 55 46  1  0
 55 54  1  1
 55 36  1  0
 23 56  1  1
 57 10  1  0
 57  6  1  0
 57 58  1  6
 58  4  1  0
 59 58  1  0
  5 60  1  6
 61  3  1  0
 62 61  1  0
 63  2  1  0
 64 62  1  0
 64 63  1  0
 64 65  1  1
  3 66  1  6
  7 67  1  1
  8 68  1  1
  9 69  1  6
 70 11  1  0
 71 12  1  0
 72 12  1  0
 73 13  1  0
 74 13  1  0
 75 15  1  0
 76 15  1  0
 77 16  1  0
 78 16  1  0
 79 18  1  0
 80 18  1  0
 81 19  1  0
 82 19  1  0
 83 21  1  0
 84 21  1  0
 85 22  1  0
 86 22  1  0
 87 25  1  0
 88 25  1  0
 89 26  1  0
 90 26  1  0
 91 27  1  0
 92 27  1  0
 93 28  1  0
 94 28  1  0
 95 31  1  0
 32 96  1  6
 33 97  1  6
 34 98  1  6
 99 40  1  0
100 41  1  0
101 41  1  0
102 41  1  0
 43103  1  6
104 44  1  0
105 44  1  0
106 44  1  0
107 45  1  0
108 45  1  0
109 47  1  0
110 50  1  0
111 50  1  0
112 50  1  0
113 53  1  0
114 53  1  0
115 53  1  0
116 54  1  0
117 61  1  0
118 61  1  0
119 62  1  0
120 62  1  0
121 63  1  0
M  END
$$$$
