
     RDKit          3D

121127  0  0  0  0  0  0  0  0999 V2000
   -3.8870   14.1090    2.9370 O   0  0  0  0  0  0  0  0  0  0  0  0
   -4.3690   13.4990    2.0470 C   0  0  2  0  0  0  0  0  0  0  0  0
   -4.0640   12.0240    1.8560 C   0  0  1  0  0  0  0  0  0  0  0  0
   -3.9280   11.3240    3.1520 N   0  0  0  0  0  0  0  0  0  0  0  0
   -4.9760   11.2360    4.0070 C   0  0  2  0  0  0  0  0  0  0  0  0
   -4.4930   10.3560    5.1340 C   0  0  0  0  0  0  0  0  0  0  0  0
   -5.1440    9.9280    6.3160 C   0  0  1  0  0  0  0  0  0  0  0  0
   -4.3680    9.2100    7.2250 C   0  0  1  0  0  0  0  0  0  0  0  0
   -3.0340    8.8440    6.9330 C   0  0  1  0  0  0  0  0  0  0  0  0
   -2.4250    9.2550    5.7220 C   0  0  1  0  0  0  0  0  0  0  0  0
   -1.1770    8.7470    5.2920 N   0  0  0  0  0  0  0  0  0  0  0  0
   -0.3290    7.5930    5.7680 C   0  0  0  0  0  0  0  0  0  0  0  0
    0.5460    7.0900    4.7540 C   0  0  0  0  0  0  0  0  0  0  0  0
   -0.1370    6.6290    3.5870 O   0  0  0  0  0  0  0  0  0  0  0  0
    0.6270    5.8570    2.6440 C   0  0  0  0  0  0  0  0  0  0  0  0
    0.7140    4.3620    3.1460 C   0  0  0  0  0  0  0  0  0  0  0  0
    1.8330    4.2690    4.0370 O   0  0  0  0  0  0  0  0  0  0  0  0
    2.1560    3.0840    4.7880 C   0  0  0  0  0  0  0  0  0  0  0  0
    3.2540    2.2810    3.9610 C   0  0  0  0  0  0  0  0  0  0  0  0
    2.5320    1.5670    2.9110 O   0  0  0  0  0  0  0  0  0  0  0  0
    3.3620    1.0680    1.8540 C   0  0  0  0  0  0  0  0  0  0  0  0
    2.6540    0.0950    0.9450 C   0  0  0  0  0  0  0  0  0  0  0  0
    3.6170   -0.4410   -0.1330 C   0  0  2  0  0  0  0  0  0  0  0  0
    3.3140   -1.5850   -0.7530 N   0  0  0  0  0  0  0  0  0  0  0  0
    1.9300   -2.1450   -0.6730 C   0  0  0  0  0  0  0  0  0  0  0  0
    1.6300   -3.1600   -1.7550 C   0  0  0  0  0  0  0  0  0  0  0  0
    4.2620   -2.1580   -1.7810 C   0  0  0  0  0  0  0  0  0  0  0  0
    4.1060   -3.7230   -1.8000 C   0  0  0  0  0  0  0  0  0  0  0  0
    2.7190   -4.1740   -1.9450 N   0  0  0  0  0  0  0  0  0  0  0  0
    2.5710   -5.3690   -2.6570 C   0  0  2  0  0  0  0  0  0  0  0  0
    1.6760   -5.5550   -3.7380 C   0  0  0  0  0  0  0  0  0  0  0  0
    1.4720   -6.8290   -4.3380 C   0  0  0  0  0  0  0  0  0  0  0  0
    3.3110   -6.5200   -2.2240 C   0  0  2  0  0  0  0  0  0  0  0  0
    3.1170   -7.8410   -2.7890 C   0  0  2  0  0  0  0  0  0  0  0  0
    2.1820   -7.9110   -3.8310 C   0  0  1  0  0  0  0  0  0  0  0  0
    1.7840   -9.2910   -4.2690 C   0  0  2  0  0  0  0  0  0  0  0  0
    1.7600   -9.6590   -5.5240 N   0  0  0  0  0  0  0  0  0  0  0  0
    2.7210  -10.4990   -5.8910 N   0  0  0  0  0  0  0  0  0  0  0  0
    3.5600  -10.2900   -6.9760 C   0  0  0  0  0  0  0  0  0  0  0  0
    3.3790   -9.0670   -7.6140 N   0  0  0  0  0  0  0  0  0  0  0  0
    3.9810   -8.7080   -8.8350 C   0  0  0  0  0  0  0  0  0  0  0  0
    4.4340  -11.0620   -7.3320 O   0  0  0  0  0  0  0  0  0  0  0  0
    2.8010  -11.8300   -5.2050 C   0  0  1  0  0  0  0  0  0  0  0  0
    3.8650  -11.9400   -4.1420 C   0  0  0  0  0  0  0  0  0  0  0  0
    1.4750  -12.2990   -4.6870 C   0  0  0  0  0  0  0  0  0  0  0  0
    0.7970  -11.5860   -3.4740 C   0  0  2  0  0  0  0  0  0  0  0  0
   -0.0580  -12.3920   -2.6530 C   0  0  2  0  0  0  0  0  0  0  0  0
   -0.8800  -11.7820   -1.6670 C   0  0  1  0  0  0  0  0  0  0  0  0
   -1.4570  -12.4750   -0.6240 O   0  0  0  0  0  0  0  0  0  0  0  0
   -1.0100  -13.8740   -0.2920 C   0  0  0  0  0  0  0  0  0  0  0  0
   -0.9420  -10.3300   -1.6920 C   0  0  1  0  0  0  0  0  0  0  0  0
   -1.6400   -9.5300   -0.8460 O   0  0  0  0  0  0  0  0  0  0  0  0
   -2.1660  -10.0780    0.4280 C   0  0  0  0  0  0  0  0  0  0  0  0
   -0.1480   -9.5970   -2.5440 C   0  0  2  0  0  0  0  0  0  0  0  0
    0.8590  -10.1440   -3.3050 C   0  0  2  0  0  0  0  0  0  0  0  0
    4.6750    0.0920   -0.3380 O   0  0  0  0  0  0  0  0  0  0  0  0
   -3.2170    9.9610    4.8610 C   0  0  2  0  0  0  0  0  0  0  0  0
   -2.7970   10.6580    3.6340 C   0  0  1  0  0  0  0  0  0  0  0  0
   -1.7650   10.4390    3.0250 O   0  0  0  0  0  0  0  0  0  0  0  0
   -6.1010   11.6730    3.9030 O   0  0  0  0  0  0  0  0  0  0  0  0
   -4.9700   11.2960    0.8380 C   0  0  0  0  0  0  0  0  0  0  0  0
   -5.2200   12.1890   -0.3900 C   0  0  0  0  0  0  0  0  0  0  0  0
   -5.0720   14.1320    1.0520 N   0  0  0  0  0  0  0  0  0  0  0  0
   -5.4930   13.6350   -0.1360 C   0  0  0  0  0  0  0  0  0  0  0  0
   -6.0050   14.3500   -0.9500 O   0  0  0  0  0  0  0  0  0  0  0  0
   -3.0630   12.1300    1.4210 H   0  0  0  0  0  0  0  0  0  0  0  0
   -6.0860   10.3290    6.6780 H   0  0  0  0  0  0  0  0  0  0  0  0
   -4.6760    9.0460    8.2540 H   0  0  0  0  0  0  0  0  0  0  0  0
   -2.3820    8.3330    7.6350 H   0  0  0  0  0  0  0  0  0  0  0  0
   -0.9400    9.1070    4.3770 H   0  0  0  0  0  0  0  0  0  0  0  0
    0.3410    8.0200    6.5240 H   0  0  0  0  0  0  0  0  0  0  0  0
   -1.0300    6.7760    5.9820 H   0  0  0  0  0  0  0  0  0  0  0  0
    1.2620    7.8580    4.4350 H   0  0  0  0  0  0  0  0  0  0  0  0
    1.1250    6.2790    5.2130 H   0  0  0  0  0  0  0  0  0  0  0  0
    0.0650    5.7890    1.7040 H   0  0  0  0  0  0  0  0  0  0  0  0
    1.5750    6.3180    2.3410 H   0  0  0  0  0  0  0  0  0  0  0  0
   -0.1650    4.1200    3.7560 H   0  0  0  0  0  0  0  0  0  0  0  0
    0.9130    3.6570    2.3290 H   0  0  0  0  0  0  0  0  0  0  0  0
    2.7270    3.3830    5.6760 H   0  0  0  0  0  0  0  0  0  0  0  0
    1.3400    2.4440    5.1460 H   0  0  0  0  0  0  0  0  0  0  0  0
    3.9000    3.1040    3.6290 H   0  0  0  0  0  0  0  0  0  0  0  0
    3.8380    1.5700    4.5600 H   0  0  0  0  0  0  0  0  0  0  0  0
    3.8540    1.9260    1.3780 H   0  0  0  0  0  0  0  0  0  0  0  0
    4.1540    0.4620    2.3110 H   0  0  0  0  0  0  0  0  0  0  0  0
    2.4030   -0.8040    1.5210 H   0  0  0  0  0  0  0  0  0  0  0  0
    1.7880    0.6260    0.5310 H   0  0  0  0  0  0  0  0  0  0  0  0
    1.8170   -2.6060    0.3160 H   0  0  0  0  0  0  0  0  0  0  0  0
    1.1920   -1.3340   -0.7110 H   0  0  0  0  0  0  0  0  0  0  0  0
    0.7030   -3.6550   -1.4390 H   0  0  0  0  0  0  0  0  0  0  0  0
    1.3860   -2.6180   -2.6770 H   0  0  0  0  0  0  0  0  0  0  0  0
    4.0730   -1.6000   -2.7060 H   0  0  0  0  0  0  0  0  0  0  0  0
    5.2660   -1.9180   -1.4120 H   0  0  0  0  0  0  0  0  0  0  0  0
    4.7130   -4.1790   -2.5910 H   0  0  0  0  0  0  0  0  0  0  0  0
    4.4310   -4.0720   -0.8120 H   0  0  0  0  0  0  0  0  0  0  0  0
    1.1910   -4.6310   -4.0370 H   0  0  0  0  0  0  0  0  0  0  0  0
    0.8050   -6.8860   -5.1930 H   0  0  0  0  0  0  0  0  0  0  0  0
    3.9970   -6.4220   -1.3880 H   0  0  0  0  0  0  0  0  0  0  0  0
    3.5830   -8.7100   -2.3340 H   0  0  0  0  0  0  0  0  0  0  0  0
    2.6670   -8.4830   -7.1910 H   0  0  0  0  0  0  0  0  0  0  0  0
    4.2930   -7.6560   -8.8510 H   0  0  0  0  0  0  0  0  0  0  0  0
    3.4660   -9.0760   -9.7310 H   0  0  0  0  0  0  0  0  0  0  0  0
    4.9080   -9.2890   -8.9070 H   0  0  0  0  0  0  0  0  0  0  0  0
    3.1030  -12.5010   -6.0190 H   0  0  0  0  0  0  0  0  0  0  0  0
    4.8500  -11.9510   -4.6240 H   0  0  0  0  0  0  0  0  0  0  0  0
    3.8370  -12.9360   -3.6830 H   0  0  0  0  0  0  0  0  0  0  0  0
    3.7990  -11.1190   -3.4170 H   0  0  0  0  0  0  0  0  0  0  0  0
    0.7030  -12.2740   -5.4650 H   0  0  0  0  0  0  0  0  0  0  0  0
    1.5810  -13.3660   -4.4540 H   0  0  0  0  0  0  0  0  0  0  0  0
    0.0810  -13.4620   -2.7780 H   0  0  0  0  0  0  0  0  0  0  0  0
   -1.1760  -14.5730   -1.1210 H   0  0  0  0  0  0  0  0  0  0  0  0
   -1.5040  -14.2810    0.5990 H   0  0  0  0  0  0  0  0  0  0  0  0
    0.0640  -13.9170   -0.0710 H   0  0  0  0  0  0  0  0  0  0  0  0
   -2.6600   -9.3180    1.0470 H   0  0  0  0  0  0  0  0  0  0  0  0
   -1.4210  -10.5810    1.0570 H   0  0  0  0  0  0  0  0  0  0  0  0
   -3.0150  -10.7270    0.1820 H   0  0  0  0  0  0  0  0  0  0  0  0
   -0.1070   -8.5240   -2.3850 H   0  0  0  0  0  0  0  0  0  0  0  0
   -4.3830   10.3900    0.6430 H   0  0  0  0  0  0  0  0  0  0  0  0
   -5.9780   11.1530    1.2480 H   0  0  0  0  0  0  0  0  0  0  0  0
   -4.3390   12.0570   -1.0300 H   0  0  0  0  0  0  0  0  0  0  0  0
   -6.0390   11.7460   -0.9700 H   0  0  0  0  0  0  0  0  0  0  0  0
   -5.3930   15.0470    1.3450 H   0  0  0  0  0  0  0  0  0  0  0  0
  2  1  1  6
  3  2  1  0
  4  3  1  0
  5  4  1  0
  6  5  1  0
  7  6  1  0
  8  7  1  0
  9  8  1  0
 10  9  1  0
 10 11  1  6
 12 11  1  0
 13 12  1  0
 14 13  1  0
 15 14  1  0
 16 15  1  0
 17 16  1  0
 18 17  1  0
 19 18  1  0
 20 19  1  0
 21 20  1  0
 22 21  1  0
 23 22  1  0
 24 23  1  0
 25 24  1  0
 26 25  1  0
 27 24  1  0
 28 27  1  0
 29 28  1  0
 29 26  1  0
 30 29  1  1
 31 30  1  0
 32 31  1  0
 33 30  1  0
 34 33  1  0
 35 34  1  0
 35 32  1  1
 36 35  1  0
 36 37  1  6
 38 37  1  0
 39 38  1  0
 40 39  1  0
 41 40  1  0
 42 39  1  0
 43 38  1  0
 44 43  1  0
 45 43  1  0
 46 45  1  6
 47 46  1  0
 48 47  1  0
 48 49  1  1
 50 49  1  0
 51 48  1  0
 51 52  1  1
 53 52  1  0
 54 51  1  0
 55 46  1  0
 55 54  1  0
 55 36  1  6
 23 56  1  1
 57  6  1  1
 57 10  1  0
 58 57  1  0
 58  4  1  0
 58 59  1  6
  5 60  1  6
 61  3  1  0
 62 61  1  0
 63  2  1  0
 64 63  1  0
 64 62  1  0
 65 64  1  0
  3 66  1  6
  7 67  1  1
  8 68  1  1
  9 69  1  1
 70 11  1  0
 71 12  1  0
 72 12  1  0
 73 13  1  0
 74 13  1  0
 75 15  1  0
 76 15  1  0
 77 16  1  0
 78 16  1  0
 79 18  1  0
 80 18  1  0
 81 19  1  0
 82 19  1  0
 83 21  1  0
 84 21  1  0
 85 22  1  0
 86 22  1  0
 87 25  1  0
 88 25  1  0
 89 26  1  0
 90 26  1  0
 91 27  1  0
 92 27  1  0
 93 28  1  0
 94 28  1  0
 95 31  1  0
 96 32  1  0
 33 97  1  1
 34 98  1  1
 99 40  1  0
100 41  1  0
101 41  1  0
102 41  1  0
 43103  1  6
104 44  1  0
105 44  1  0
106 44  1  0
107 45  1  0
108 45  1  0
 47109  1  1
110 50  1  0
111 50  1  0
112 50  1  0
113 53  1  0
114 53  1  0
115 53  1  0
 54116  1  1
117 61  1  0
118 61  1  0
119 62  1  0
120 62  1  0
121 63  1  0
M  END
$$$$
