
     RDKit          3D

121127  0  0  0  0  0  0  0  0999 V2000
   -4.2940   13.8620   -0.8810 O   0  0  0  0  0  0  0  0  0  0  0  0
   -5.2170   13.8120   -1.6690 C   0  0  2  0  0  0  0  0  0  0  0  0
   -6.0910   12.5820   -1.8520 C   0  0  1  0  0  0  0  0  0  0  0  0
   -6.1420   11.7180   -0.5810 N   0  0  0  0  0  0  0  0  0  0  0  0
   -6.8220   11.9990    0.5720 C   0  0  0  0  0  0  0  0  0  0  0  0
   -6.4190   10.8830    1.4620 C   0  0  2  0  0  0  0  0  0  0  0  0
   -6.7690   10.5390    2.7730 C   0  0  2  0  0  0  0  0  0  0  0  0
   -6.1670    9.4370    3.4590 C   0  0  2  0  0  0  0  0  0  0  0  0
   -5.1420    8.7010    2.7690 C   0  0  0  0  0  0  0  0  0  0  0  0
   -4.8180    9.0620    1.4350 C   0  0  0  0  0  0  0  0  0  0  0  0
   -3.8570    8.3910    0.7420 N   0  0  0  0  0  0  0  0  0  0  0  0
   -2.9260    7.4080    1.2520 C   0  0  0  0  0  0  0  0  0  0  0  0
   -1.7260    7.4140    0.3260 C   0  0  0  0  0  0  0  0  0  0  0  0
   -0.8100    6.3590    0.7050 O   0  0  0  0  0  0  0  0  0  0  0  0
    0.2400    6.0680   -0.3190 C   0  0  0  0  0  0  0  0  0  0  0  0
    1.1790    5.0320    0.3000 C   0  0  0  0  0  0  0  0  0  0  0  0
    2.1320    5.7250    1.1190 O   0  0  0  0  0  0  0  0  0  0  0  0
    2.7870    4.8800    2.0360 C   0  0  0  0  0  0  0  0  0  0  0  0
    3.8390    3.9830    1.3120 C   0  0  0  0  0  0  0  0  0  0  0  0
    3.2690    2.7070    1.1840 O   0  0  0  0  0  0  0  0  0  0  0  0
    3.8350    1.9110    0.1010 C   0  0  0  0  0  0  0  0  0  0  0  0
    3.1410    0.5890    0.2660 C   0  0  0  0  0  0  0  0  0  0  0  0
    3.2840   -0.4150   -0.9110 C   0  0  0  0  0  0  0  0  0  0  0  0
    2.8910   -1.7150   -0.7410 N   0  0  0  0  0  0  0  0  0  0  0  0
    2.3320   -2.3990    0.4770 C   0  0  0  0  0  0  0  0  0  0  0  0
    2.9610   -3.8080    0.8500 C   0  0  0  0  0  0  0  0  0  0  0  0
    2.8110   -2.7320   -1.8900 C   0  0  0  0  0  0  0  0  0  0  0  0
    3.6100   -4.0110   -1.5520 C   0  0  0  0  0  0  0  0  0  0  0  0
    2.9250   -4.6950   -0.3600 N   0  0  0  0  0  0  0  0  0  0  0  0
    2.6950   -6.0150   -0.3260 C   0  0  2  0  0  0  0  0  0  0  0  0
    1.3670   -6.5440   -0.5320 C   0  0  2  0  0  0  0  0  0  0  0  0
    1.1340   -7.9090   -0.5210 C   0  0  2  0  0  0  0  0  0  0  0  0
    3.7150   -6.8950    0.0540 C   0  0  2  0  0  0  0  0  0  0  0  0
    3.5890   -8.2720    0.0450 C   0  0  0  0  0  0  0  0  0  0  0  0
    2.2500   -8.7800   -0.2500 C   0  0  1  0  0  0  0  0  0  0  0  0
    2.0630  -10.2400   -0.1890 C   0  0  1  0  0  0  0  0  0  0  0  0
    1.6870  -10.9190   -1.1990 N   0  0  0  0  0  0  0  0  0  0  0  0
    2.7070  -11.4920   -2.0560 N   0  0  0  0  0  0  0  0  0  0  0  0
    2.5420  -11.3890   -3.4620 C   0  0  1  0  0  0  0  0  0  0  0  0
    1.5870  -10.5060   -3.8110 N   0  0  0  0  0  0  0  0  0  0  0  0
    0.9550  -10.1770   -5.0790 C   0  0  0  0  0  0  0  0  0  0  0  0
    3.2290  -11.9580   -4.2900 O   0  0  0  0  0  0  0  0  0  0  0  0
    3.7180  -12.4740   -1.5270 C   0  0  1  0  0  0  0  0  0  0  0  0
    5.0840  -11.9170   -1.3180 C   0  0  0  0  0  0  0  0  0  0  0  0
    3.3100  -13.1570   -0.2410 C   0  0  0  0  0  0  0  0  0  0  0  0
    3.2300  -12.2700    1.0650 C   0  0  2  0  0  0  0  0  0  0  0  0
    3.5640  -12.9100    2.2340 C   0  0  0  0  0  0  0  0  0  0  0  0
    3.6590  -12.1790    3.4600 C   0  0  0  0  0  0  0  0  0  0  0  0
    4.1730  -12.8050    4.5920 O   0  0  0  0  0  0  0  0  0  0  0  0
    3.8340  -14.1270    4.8810 C   0  0  0  0  0  0  0  0  0  0  0  0
    3.2540  -10.8220    3.4490 C   0  0  1  0  0  0  0  0  0  0  0  0
    3.5560  -10.0010    4.4850 O   0  0  0  0  0  0  0  0  0  0  0  0
    3.3480   -8.6150    4.6810 C   0  0  0  0  0  0  0  0  0  0  0  0
    2.6610  -10.2510    2.2820 C   0  0  0  0  0  0  0  0  0  0  0  0
    2.5650  -11.0170    1.0910 C   0  0  1  0  0  0  0  0  0  0  0  0
    3.7210   -0.0390   -1.9860 O   0  0  0  0  0  0  0  0  0  0  0  0
   -5.4600   10.1280    0.8580 C   0  0  0  0  0  0  0  0  0  0  0  0
   -5.2830   10.6510   -0.4200 C   0  0  1  0  0  0  0  0  0  0  0  0
   -4.5280   10.1910   -1.3080 O   0  0  0  0  0  0  0  0  0  0  0  0
   -7.5590   12.9200    0.8420 O   0  0  0  0  0  0  0  0  0  0  0  0
   -7.5010   12.9970   -2.3210 C   0  0  0  0  0  0  0  0  0  0  0  0
   -7.3250   13.7930   -3.6980 C   0  0  0  0  0  0  0  0  0  0  0  0
   -5.3790   14.7800   -2.6230 N   0  0  0  0  0  0  0  0  0  0  0  0
   -6.2560   14.8760   -3.6170 C   0  0  0  0  0  0  0  0  0  0  0  0
   -6.2330   15.8390   -4.4060 O   0  0  0  0  0  0  0  0  0  0  0  0
   -5.4850   12.0720   -2.6120 H   0  0  0  0  0  0  0  0  0  0  0  0
   -7.5730   11.1040    3.2330 H   0  0  0  0  0  0  0  0  0  0  0  0
   -6.5730    9.1850    4.4340 H   0  0  0  0  0  0  0  0  0  0  0  0
   -4.6330    7.8720    3.2510 H   0  0  0  0  0  0  0  0  0  0  0  0
   -3.7390    8.7860   -0.1820 H   0  0  0  0  0  0  0  0  0  0  0  0
   -2.5990    7.7760    2.2330 H   0  0  0  0  0  0  0  0  0  0  0  0
   -3.5090    6.4890    1.3880 H   0  0  0  0  0  0  0  0  0  0  0  0
   -2.0380    7.3000   -0.7190 H   0  0  0  0  0  0  0  0  0  0  0  0
   -1.2470    8.3990    0.3910 H   0  0  0  0  0  0  0  0  0  0  0  0
   -0.2380    5.6390   -1.2090 H   0  0  0  0  0  0  0  0  0  0  0  0
    0.7560    7.0070   -0.5560 H   0  0  0  0  0  0  0  0  0  0  0  0
    0.5610    4.3610    0.9090 H   0  0  0  0  0  0  0  0  0  0  0  0
    1.5990    4.4220   -0.5090 H   0  0  0  0  0  0  0  0  0  0  0  0
    3.4140    5.4510    2.7330 H   0  0  0  0  0  0  0  0  0  0  0  0
    2.0740    4.3020    2.6370 H   0  0  0  0  0  0  0  0  0  0  0  0
    4.0740    4.4410    0.3440 H   0  0  0  0  0  0  0  0  0  0  0  0
    4.7660    3.9690    1.8990 H   0  0  0  0  0  0  0  0  0  0  0  0
    3.6280    2.2270   -0.9290 H   0  0  0  0  0  0  0  0  0  0  0  0
    4.9160    1.7670    0.2160 H   0  0  0  0  0  0  0  0  0  0  0  0
    3.3800    0.1140    1.2250 H   0  0  0  0  0  0  0  0  0  0  0  0
    2.0820    0.7740    0.4840 H   0  0  0  0  0  0  0  0  0  0  0  0
    2.4030   -1.7930    1.3890 H   0  0  0  0  0  0  0  0  0  0  0  0
    1.2450   -2.4390    0.3310 H   0  0  0  0  0  0  0  0  0  0  0  0
    3.9690   -3.6470    1.2540 H   0  0  0  0  0  0  0  0  0  0  0  0
    2.2960   -4.2510    1.6020 H   0  0  0  0  0  0  0  0  0  0  0  0
    1.7880   -3.0360   -2.1450 H   0  0  0  0  0  0  0  0  0  0  0  0
    3.2180   -2.2090   -2.7640 H   0  0  0  0  0  0  0  0  0  0  0  0
    3.8010   -4.6550   -2.4200 H   0  0  0  0  0  0  0  0  0  0  0  0
    4.5820   -3.5990   -1.2530 H   0  0  0  0  0  0  0  0  0  0  0  0
    0.5320   -5.9270   -0.8500 H   0  0  0  0  0  0  0  0  0  0  0  0
    0.1640   -8.2950   -0.8220 H   0  0  0  0  0  0  0  0  0  0  0  0
    4.5920   -6.4140    0.4770 H   0  0  0  0  0  0  0  0  0  0  0  0
    4.4090   -8.9640    0.2120 H   0  0  0  0  0  0  0  0  0  0  0  0
    1.2420  -10.0310   -2.9850 H   0  0  0  0  0  0  0  0  0  0  0  0
    1.5980  -10.4800   -5.9150 H   0  0  0  0  0  0  0  0  0  0  0  0
    0.8890   -9.0890   -5.2060 H   0  0  0  0  0  0  0  0  0  0  0  0
   -0.0170  -10.6750   -5.1780 H   0  0  0  0  0  0  0  0  0  0  0  0
    3.8290  -13.2440   -2.3000 H   0  0  0  0  0  0  0  0  0  0  0  0
    5.7410  -12.7220   -0.9650 H   0  0  0  0  0  0  0  0  0  0  0  0
    5.0770  -11.1220   -0.5620 H   0  0  0  0  0  0  0  0  0  0  0  0
    5.4500  -11.5430   -2.2820 H   0  0  0  0  0  0  0  0  0  0  0  0
    2.2910  -13.5580   -0.3070 H   0  0  0  0  0  0  0  0  0  0  0  0
    3.9660  -14.0090   -0.0230 H   0  0  0  0  0  0  0  0  0  0  0  0
    3.7800  -13.9730    2.1780 H   0  0  0  0  0  0  0  0  0  0  0  0
    2.7580  -14.3380    4.9080 H   0  0  0  0  0  0  0  0  0  0  0  0
    4.3160  -14.3580    5.8390 H   0  0  0  0  0  0  0  0  0  0  0  0
    4.2310  -14.7700    4.0860 H   0  0  0  0  0  0  0  0  0  0  0  0
    2.3100   -8.2590    4.6760 H   0  0  0  0  0  0  0  0  0  0  0  0
    3.8670   -7.9870    3.9460 H   0  0  0  0  0  0  0  0  0  0  0  0
    3.7450   -8.4450    5.6890 H   0  0  0  0  0  0  0  0  0  0  0  0
    2.2660   -9.2400    2.2340 H   0  0  0  0  0  0  0  0  0  0  0  0
   -8.1670   12.1620   -2.5730 H   0  0  0  0  0  0  0  0  0  0  0  0
   -7.9580   13.6320   -1.5520 H   0  0  0  0  0  0  0  0  0  0  0  0
   -7.2700   13.0910   -4.5390 H   0  0  0  0  0  0  0  0  0  0  0  0
   -8.2050   14.4070   -3.9250 H   0  0  0  0  0  0  0  0  0  0  0  0
   -4.7400   15.5650   -2.6450 H   0  0  0  0  0  0  0  0  0  0  0  0
  2  1  1  6
  3  2  1  0
  4  3  1  0
  5  4  1  0
  6  5  1  1
  7  6  1  0
  8  7  1  0
  9  8  1  0
 10  9  1  0
 11 10  1  0
 12 11  1  0
 13 12  1  0
 14 13  1  0
 15 14  1  0
 16 15  1  0
 17 16  1  0
 18 17  1  0
 19 18  1  0
 20 19  1  0
 21 20  1  0
 22 21  1  0
 23 22  1  0
 24 23  1  0
 25 24  1  0
 26 25  1  0
 27 24  1  0
 28 27  1  0
 29 28  1  0
 29 26  1  0
 30 29  1  1
 31 30  1  0
 32 31  1  0
 33 30  1  0
 34 33  1  0
 35 34  1  1
 35 32  1  0
 36 35  1  0
 36 37  1  6
 38 37  1  0
 39 38  1  0
 40 39  1  0
 41 40  1  0
 39 42  1  6
 43 38  1  0
 44 43  1  0
 45 43  1  0
 46 45  1  0
 46 47  1  1
 48 47  1  0
 49 48  1  0
 50 49  1  0
 51 48  1  0
 51 52  1  6
 53 52  1  0
 54 51  1  0
 55 46  1  0
 55 54  1  6
 55 36  1  0
 56 23  1  0
 57  6  1  0
 57 10  1  0
 58 57  1  0
 58  4  1  0
 58 59  1  6
 60  5  1  0
 61  3  1  0
 62 61  1  0
 63  2  1  0
 64 62  1  0
 64 63  1  0
 65 64  1  0
  3 66  1  6
  7 67  1  6
  8 68  1  6
 69  9  1  0
 70 11  1  0
 71 12  1  0
 72 12  1  0
 73 13  1  0
 74 13  1  0
 75 15  1  0
 76 15  1  0
 77 16  1  0
 78 16  1  0
 79 18  1  0
 80 18  1  0
 81 19  1  0
 82 19  1  0
 83 21  1  0
 84 21  1  0
 85 22  1  0
 86 22  1  0
 87 25  1  0
 88 25  1  0
 89 26  1  0
 90 26  1  0
 91 27  1  0
 92 27  1  0
 93 28  1  0
 94 28  1  0
 31 95  1  6
 32 96  1  6
 33 97  1  1
 98 34  1  0
 99 40  1  0
100 41  1  0
101 41  1  0
102 41  1  0
 43103  1  6
104 44  1  0
105 44  1  0
106 44  1  0
107 45  1  0
108 45  1  0
109 47  1  0
110 50  1  0
111 50  1  0
112 50  1  0
113 53  1  0
114 53  1  0
115 53  1  0
116 54  1  0
117 61  1  0
118 61  1  0
119 62  1  0
120 62  1  0
121 63  1  0
M  END
$$$$

     RDKit          3D

121127  0  0  0  0  0  0  0  0999 V2000
   -6.6590   14.1190   -0.1080 O   0  0  0  0  0  0  0  0  0  0  0  0
   -7.2300   13.9770   -1.1830 C   0  0  2  0  0  0  0  0  0  0  0  0
   -7.6750   12.6280   -1.7090 C   0  0  1  0  0  0  0  0  0  0  0  0
   -7.7310   11.5960   -0.6160 N   0  0  0  0  0  0  0  0  0  0  0  0
   -8.7790   11.3290    0.2390 C   0  0  2  0  0  0  0  0  0  0  0  0
   -8.2550   10.3300    1.2530 C   0  0  2  0  0  0  0  0  0  0  0  0
   -8.8390    9.7200    2.3740 C   0  0  1  0  0  0  0  0  0  0  0  0
   -8.0860    8.8220    3.1180 C   0  0  2  0  0  0  0  0  0  0  0  0
   -6.6870    8.5840    2.7810 C   0  0  1  0  0  0  0  0  0  0  0  0
   -6.0700    9.3500    1.7610 C   0  0  1  0  0  0  0  0  0  0  0  0
   -4.7650    9.1690    1.3260 N   0  0  0  0  0  0  0  0  0  0  0  0
   -4.0230    7.9460    1.7240 C   0  0  0  0  0  0  0  0  0  0  0  0
   -2.6520    7.7790    0.9890 C   0  0  0  0  0  0  0  0  0  0  0  0
   -1.9820    6.6810    1.5040 O   0  0  0  0  0  0  0  0  0  0  0  0
   -0.7090    6.3920    0.8830 C   0  0  0  0  0  0  0  0  0  0  0  0
    0.0830    5.1860    1.5560 C   0  0  0  0  0  0  0  0  0  0  0  0
    1.4270    5.0680    0.9810 O   0  0  0  0  0  0  0  0  0  0  0  0
    2.3590    4.2970    1.8030 C   0  0  0  0  0  0  0  0  0  0  0  0
    3.5110    3.7350    0.8880 C   0  0  0  0  0  0  0  0  0  0  0  0
    2.9880    2.4950    0.2620 O   0  0  0  0  0  0  0  0  0  0  0  0
    3.9340    1.4230    0.1150 C   0  0  0  0  0  0  0  0  0  0  0  0
    3.2950    0.2450   -0.6120 C   0  0  0  0  0  0  0  0  0  0  0  0
    4.3600   -0.7360   -1.0010 C   0  0  0  0  0  0  0  0  0  0  0  0
    3.8980   -1.8350   -1.6650 N   0  0  0  0  0  0  0  0  0  0  0  0
    2.5560   -2.4720   -1.4650 C   0  0  0  0  0  0  0  0  0  0  0  0
    2.7120   -3.6820   -0.4560 C   0  0  0  0  0  0  0  0  0  0  0  0
    4.9720   -2.7550   -2.2980 C   0  0  0  0  0  0  0  0  0  0  0  0
    5.1220   -4.0330   -1.3280 C   0  0  0  0  0  0  0  0  0  0  0  0
    3.7720   -4.6910   -0.8980 N   0  0  0  0  0  0  0  0  0  0  0  0
    3.5340   -6.0510   -0.6040 C   0  0  0  0  0  0  0  0  0  0  0  0
    2.3110   -6.6870   -1.0090 C   0  0  2  0  0  0  0  0  0  0  0  0
    2.1930   -8.0830   -0.7850 C   0  0  0  0  0  0  0  0  0  0  0  0
    4.5160   -6.8060    0.0900 C   0  0  2  0  0  0  0  0  0  0  0  0
    4.3310   -8.1790    0.3590 C   0  0  0  0  0  0  0  0  0  0  0  0
    3.1810   -8.8670   -0.1000 C   0  0  2  0  0  0  0  0  0  0  0  0
    3.1040  -10.3750   -0.1560 C   0  0  1  0  0  0  0  0  0  0  0  0
    3.0170  -10.8980   -1.3600 N   0  0  0  0  0  0  0  0  0  0  0  0
    4.1060  -11.1150   -2.1050 N   0  0  0  0  0  0  0  0  0  0  0  0
    4.1690  -10.4040   -3.2380 C   0  0  0  0  0  0  0  0  0  0  0  0
    3.4130   -9.2620   -3.3160 N   0  0  0  0  0  0  0  0  0  0  0  0
    3.4630   -8.3780   -4.5480 C   0  0  0  0  0  0  0  0  0  0  0  0
    4.9330  -10.8310   -4.1320 O   0  0  0  0  0  0  0  0  0  0  0  0
    5.0400  -12.2100   -1.7490 C   0  0  1  0  0  0  0  0  0  0  0  0
    6.4880  -11.7210   -1.4640 C   0  0  0  0  0  0  0  0  0  0  0  0
    4.5560  -13.0770   -0.5070 C   0  0  0  0  0  0  0  0  0  0  0  0
    4.5820  -12.3230    0.7790 C   0  0  2  0  0  0  0  0  0  0  0  0
    5.2270  -12.9570    1.8440 C   0  0  0  0  0  0  0  0  0  0  0  0
    5.0080  -12.4320    3.1300 C   0  0  0  0  0  0  0  0  0  0  0  0
    5.5640  -13.0530    4.2130 O   0  0  0  0  0  0  0  0  0  0  0  0
    6.1480  -14.3220    4.3260 C   0  0  0  0  0  0  0  0  0  0  0  0
    4.2230  -11.2890    3.3960 C   0  0  2  0  0  0  0  0  0  0  0  0
    3.9810  -10.9710    4.6360 O   0  0  0  0  0  0  0  0  0  0  0  0
    3.4170   -9.6850    5.0750 C   0  0  0  0  0  0  0  0  0  0  0  0
    3.6400  -10.6570    2.2910 C   0  0  0  0  0  0  0  0  0  0  0  0
    3.8370  -11.0960    0.9530 C   0  0  2  0  0  0  0  0  0  0  0  0
    5.5050   -0.5210   -0.7780 O   0  0  0  0  0  0  0  0  0  0  0  0
   -6.9090   10.1500    0.9760 C   0  0  0  0  0  0  0  0  0  0  0  0
   -6.5780   10.9620   -0.2290 C   0  0  0  0  0  0  0  0  0  0  0  0
   -5.5380   11.0690   -0.8040 O   0  0  0  0  0  0  0  0  0  0  0  0
   -9.9290   11.7430    0.1570 O   0  0  0  0  0  0  0  0  0  0  0  0
   -8.9980   12.7310   -2.5450 C   0  0  0  0  0  0  0  0  0  0  0  0
   -8.9080   13.9210   -3.5550 C   0  0  0  0  0  0  0  0  0  0  0  0
   -7.3760   15.0170   -2.0040 N   0  0  0  0  0  0  0  0  0  0  0  0
   -8.1190   15.1900   -3.1150 C   0  0  2  0  0  0  0  0  0  0  0  0
   -8.2090   16.2650   -3.6800 O   0  0  0  0  0  0  0  0  0  0  0  0
   -6.8900   12.2960   -2.4000 H   0  0  0  0  0  0  0  0  0  0  0  0
   -9.8350   10.0000    2.7020 H   0  0  0  0  0  0  0  0  0  0  0  0
   -8.4700    8.2080    3.9270 H   0  0  0  0  0  0  0  0  0  0  0  0
   -6.0390    7.9280    3.3540 H   0  0  0  0  0  0  0  0  0  0  0  0
   -4.3880    9.7060    0.5550 H   0  0  0  0  0  0  0  0  0  0  0  0
   -3.7940    8.0740    2.7890 H   0  0  0  0  0  0  0  0  0  0  0  0
   -4.7030    7.0860    1.6790 H   0  0  0  0  0  0  0  0  0  0  0  0
   -3.0070    7.4970   -0.0100 H   0  0  0  0  0  0  0  0  0  0  0  0
   -2.0250    8.6780    0.9350 H   0  0  0  0  0  0  0  0  0  0  0  0
   -0.8690    6.1700   -0.1790 H   0  0  0  0  0  0  0  0  0  0  0  0
   -0.0680    7.2780    0.9610 H   0  0  0  0  0  0  0  0  0  0  0  0
    0.1450    5.3300    2.6420 H   0  0  0  0  0  0  0  0  0  0  0  0
   -0.4990    4.2680    1.4120 H   0  0  0  0  0  0  0  0  0  0  0  0
    2.9400    4.8720    2.5350 H   0  0  0  0  0  0  0  0  0  0  0  0
    1.8510    3.4380    2.2600 H   0  0  0  0  0  0  0  0  0  0  0  0
    3.8090    4.5170    0.1780 H   0  0  0  0  0  0  0  0  0  0  0  0
    4.3780    3.5000    1.5170 H   0  0  0  0  0  0  0  0  0  0  0  0
    4.7650    1.7990   -0.4940 H   0  0  0  0  0  0  0  0  0  0  0  0
    4.2000    1.0750    1.1210 H   0  0  0  0  0  0  0  0  0  0  0  0
    2.5630   -0.1610    0.0960 H   0  0  0  0  0  0  0  0  0  0  0  0
    2.8200    0.6380   -1.5200 H   0  0  0  0  0  0  0  0  0  0  0  0
    1.7970   -1.7770   -1.0860 H   0  0  0  0  0  0  0  0  0  0  0  0
    2.2510   -2.8390   -2.4530 H   0  0  0  0  0  0  0  0  0  0  0  0
    2.8630   -3.3200    0.5680 H   0  0  0  0  0  0  0  0  0  0  0  0
    1.6880   -4.0650   -0.5530 H   0  0  0  0  0  0  0  0  0  0  0  0
    4.5060   -3.0420   -3.2490 H   0  0  0  0  0  0  0  0  0  0  0  0
    5.9250   -2.2230   -2.4050 H   0  0  0  0  0  0  0  0  0  0  0  0
    5.7440   -4.8340   -1.7460 H   0  0  0  0  0  0  0  0  0  0  0  0
    5.5820   -3.7260   -0.3800 H   0  0  0  0  0  0  0  0  0  0  0  0
    1.5330   -6.1550   -1.5480 H   0  0  0  0  0  0  0  0  0  0  0  0
    1.3320   -8.6070   -1.1900 H   0  0  0  0  0  0  0  0  0  0  0  0
    5.4050   -6.3190    0.4800 H   0  0  0  0  0  0  0  0  0  0  0  0
    5.1050   -8.6870    0.9250 H   0  0  0  0  0  0  0  0  0  0  0  0
    3.0160   -8.9660   -2.4320 H   0  0  0  0  0  0  0  0  0  0  0  0
    4.1460   -7.5470   -4.3320 H   0  0  0  0  0  0  0  0  0  0  0  0
    2.4870   -7.9300   -4.7700 H   0  0  0  0  0  0  0  0  0  0  0  0
    4.0310   -8.8270   -5.3730 H   0  0  0  0  0  0  0  0  0  0  0  0
    5.0440  -12.8980   -2.6040 H   0  0  0  0  0  0  0  0  0  0  0  0
    7.1470  -12.5800   -1.2860 H   0  0  0  0  0  0  0  0  0  0  0  0
    6.4770  -11.1420   -0.5330 H   0  0  0  0  0  0  0  0  0  0  0  0
    6.7660  -11.1010   -2.3250 H   0  0  0  0  0  0  0  0  0  0  0  0
    3.5340  -13.3490   -0.7970 H   0  0  0  0  0  0  0  0  0  0  0  0
    5.2050  -13.9610   -0.4650 H   0  0  0  0  0  0  0  0  0  0  0  0
    5.7900  -13.8750    1.7040 H   0  0  0  0  0  0  0  0  0  0  0  0
    5.3930  -15.0000    3.9090 H   0  0  0  0  0  0  0  0  0  0  0  0
    6.3040  -14.5270    5.3930 H   0  0  0  0  0  0  0  0  0  0  0  0
    7.1170  -14.3530    3.8120 H   0  0  0  0  0  0  0  0  0  0  0  0
    2.3730   -9.6200    4.7420 H   0  0  0  0  0  0  0  0  0  0  0  0
    3.9920   -8.8480    4.6590 H   0  0  0  0  0  0  0  0  0  0  0  0
    3.2560   -9.6440    6.1590 H   0  0  0  0  0  0  0  0  0  0  0  0
    2.9980   -9.7940    2.4410 H   0  0  0  0  0  0  0  0  0  0  0  0
   -9.3150   11.8310   -3.0860 H   0  0  0  0  0  0  0  0  0  0  0  0
   -9.8120   13.0130   -1.8650 H   0  0  0  0  0  0  0  0  0  0  0  0
   -8.4270   13.5360   -4.4620 H   0  0  0  0  0  0  0  0  0  0  0  0
   -9.8820   14.2500   -3.9380 H   0  0  0  0  0  0  0  0  0  0  0  0
   -7.0410   15.8740   -1.5800 H   0  0  0  0  0  0  0  0  0  0  0  0
  2  1  1  6
  3  2  1  0
  4  3  1  0
  5  4  1  0
  6  5  1  0
  7  6  1  0
  8  7  1  0
  9  8  1  0
 10  9  1  0
 10 11  1  6
 12 11  1  0
 13 12  1  0
 14 13  1  0
 15 14  1  0
 16 15  1  0
 17 16  1  0
 18 17  1  0
 19 18  1  0
 20 19  1  0
 21 20  1  0
 22 21  1  0
 23 22  1  0
 24 23  1  0
 25 24  1  0
 26 25  1  0
 27 24  1  0
 28 27  1  0
 29 28  1  0
 29 26  1  0
 30 29  1  0
 31 30  1  0
 32 31  1  0
 33 30  1  0
 34 33  1  0
 35 34  1  6
 35 32  1  0
 36 35  1  0
 36 37  1  6
 38 37  1  0
 39 38  1  0
 40 39  1  0
 41 40  1  0
 42 39  1  0
 43 38  1  0
 44 43  1  0
 45 43  1  0
 46 45  1  0
 46 47  1  1
 48 47  1  0
 49 48  1  0
 50 49  1  0
 51 48  1  0
 51 52  1  1
 53 52  1  0
 54 51  1  0
 55 46  1  0
 55 54  1  1
 55 36  1  0
 56 23  1  0
 57 10  1  0
  6 57  1  1
 58 57  1  0
 58  4  1  0
 59 58  1  0
  5 60  1  6
 61  3  1  0
 62 61  1  0
 63  2  1  0
 64 63  1  0
 64 62  1  0
 64 65  1  1
  3 66  1  6
  7 67  1  1
  8 68  1  6
  9 69  1  1
 70 11  1  0
 71 12  1  0
 72 12  1  0
 73 13  1  0
 74 13  1  0
 75 15  1  0
 76 15  1  0
 77 16  1  0
 78 16  1  0
 79 18  1  0
 80 18  1  0
 81 19  1  0
 82 19  1  0
 83 21  1  0
 84 21  1  0
 85 22  1  0
 86 22  1  0
 87 25  1  0
 88 25  1  0
 89 26  1  0
 90 26  1  0
 91 27  1  0
 92 27  1  0
 93 28  1  0
 94 28  1  0
 31 95  1  6
 96 32  1  0
 33 97  1  1
 98 34  1  0
 99 40  1  0
100 41  1  0
101 41  1  0
102 41  1  0
 43103  1  6
104 44  1  0
105 44  1  0
106 44  1  0
107 45  1  0
108 45  1  0
109 47  1  0
110 50  1  0
111 50  1  0
112 50  1  0
113 53  1  0
114 53  1  0
115 53  1  0
116 54  1  0
117 61  1  0
118 61  1  0
119 62  1  0
120 62  1  0
121 63  1  0
M  END
$$$$

     RDKit          3D

121127  0  0  0  0  0  0  0  0999 V2000
   -6.9640   14.6940   -1.5140 O   0  0  0  0  0  0  0  0  0  0  0  0
   -7.7480   14.4350   -2.4120 C   0  0  2  0  0  0  0  0  0  0  0  0
   -7.9720   12.9210   -2.9230 C   0  0  1  0  0  0  0  0  0  0  0  0
   -7.8160   11.9700   -1.7610 N   0  0  0  0  0  0  0  0  0  0  0  0
   -8.4700   12.0060   -0.5430 C   0  0  0  0  0  0  0  0  0  0  0  0
   -7.8330   10.9370    0.2800 C   0  0  2  0  0  0  0  0  0  0  0  0
   -7.9860   10.5480    1.6660 C   0  0  1  0  0  0  0  0  0  0  0  0
   -7.2200    9.5120    2.2330 C   0  0  2  0  0  0  0  0  0  0  0  0
   -6.2710    8.8900    1.3770 C   0  0  0  0  0  0  0  0  0  0  0  0
   -5.9230    9.4020    0.1140 C   0  0  1  0  0  0  0  0  0  0  0  0
   -4.9780    8.8150   -0.7400 N   0  0  0  0  0  0  0  0  0  0  0  0
   -4.8540    7.3400   -1.0110 C   0  0  0  0  0  0  0  0  0  0  0  0
   -3.6670    6.7800   -0.2360 C   0  0  0  0  0  0  0  0  0  0  0  0
   -3.1310    5.6870   -1.0010 O   0  0  0  0  0  0  0  0  0  0  0  0
   -1.7770    5.2790   -0.5730 C   0  0  0  0  0  0  0  0  0  0  0  0
   -1.7980    4.1620    0.5190 C   0  0  0  0  0  0  0  0  0  0  0  0
   -0.4530    3.8350    0.6570 O   0  0  0  0  0  0  0  0  0  0  0  0
   -0.1560    2.9450    1.7970 C   0  0  0  0  0  0  0  0  0  0  0  0
    1.2620    2.4370    1.6310 C   0  0  0  0  0  0  0  0  0  0  0  0
    1.4700    1.5970    0.5130 O   0  0  0  0  0  0  0  0  0  0  0  0
    2.9350    1.3430    0.1230 C   0  0  0  0  0  0  0  0  0  0  0  0
    2.8800   -0.0450   -0.6290 C   0  0  0  0  0  0  0  0  0  0  0  0
    4.1920   -0.7080   -0.9610 C   0  0  0  0  0  0  0  0  0  0  0  0
    4.2220   -1.9870   -1.6110 N   0  0  0  0  0  0  0  0  0  0  0  0
    3.0280   -2.8090   -1.7020 C   0  0  0  0  0  0  0  0  0  0  0  0
    3.1230   -3.9070   -0.6460 C   0  0  0  0  0  0  0  0  0  0  0  0
    5.5100   -2.7280   -1.7980 C   0  0  0  0  0  0  0  0  0  0  0  0
    5.6200   -3.8600   -0.7900 C   0  0  0  0  0  0  0  0  0  0  0  0
    4.3720   -4.6920   -0.7150 N   0  0  0  0  0  0  0  0  0  0  0  0
    4.4690   -6.0090   -0.3390 C   0  0  2  0  0  0  0  0  0  0  0  0
    3.5080   -6.8930   -0.8350 C   0  0  2  0  0  0  0  0  0  0  0  0
    3.4850   -8.1880   -0.3820 C   0  0  0  0  0  0  0  0  0  0  0  0
    5.2210   -6.4140    0.7770 C   0  0  0  0  0  0  0  0  0  0  0  0
    5.1740   -7.7550    1.2150 C   0  0  1  0  0  0  0  0  0  0  0  0
    4.3720   -8.7220    0.5670 C   0  0  1  0  0  0  0  0  0  0  0  0
    4.3010  -10.1890    0.8520 C   0  0  1  0  0  0  0  0  0  0  0  0
    4.1660  -11.0200   -0.1350 N   0  0  0  0  0  0  0  0  0  0  0  0
    5.3330  -11.5040   -0.7090 N   0  0  0  0  0  0  0  0  0  0  0  0
    5.6330  -11.1800   -2.0170 C   0  0  0  0  0  0  0  0  0  0  0  0
    4.7240  -10.3480   -2.5940 N   0  0  0  0  0  0  0  0  0  0  0  0
    4.5510  -10.1380   -4.0650 C   0  0  0  0  0  0  0  0  0  0  0  0
    6.6130  -11.6610   -2.5330 O   0  0  0  0  0  0  0  0  0  0  0  0
    6.2400  -12.1710    0.1330 C   0  0  1  0  0  0  0  0  0  0  0  0
    7.3830  -11.2970    0.6450 C   0  0  0  0  0  0  0  0  0  0  0  0
    5.5190  -12.8930    1.3050 C   0  0  0  0  0  0  0  0  0  0  0  0
    4.9380  -12.0110    2.4380 C   0  0  1  0  0  0  0  0  0  0  0  0
    4.9870  -12.5620    3.7550 C   0  0  2  0  0  0  0  0  0  0  0  0
    4.6740  -11.7620    4.8900 C   0  0  2  0  0  0  0  0  0  0  0  0
    4.7510  -12.2620    6.2030 O   0  0  0  0  0  0  0  0  0  0  0  0
    5.8000  -13.1380    6.6400 C   0  0  0  0  0  0  0  0  0  0  0  0
    4.1870  -10.4730    4.6150 C   0  0  1  0  0  0  0  0  0  0  0  0
    3.7180   -9.7250    5.7190 O   0  0  0  0  0  0  0  0  0  0  0  0
    3.3070   -8.3960    5.6790 C   0  0  0  0  0  0  0  0  0  0  0  0
    4.2180   -9.9050    3.3600 C   0  0  1  0  0  0  0  0  0  0  0  0
    4.5220  -10.6400    2.2210 C   0  0  2  0  0  0  0  0  0  0  0  0
    5.1870   -0.1250   -0.7020 O   0  0  0  0  0  0  0  0  0  0  0  0
   -6.7350   10.4140   -0.3790 C   0  0  1  0  0  0  0  0  0  0  0  0
   -6.7350   11.1260   -1.7030 C   0  0  1  0  0  0  0  0  0  0  0  0
   -5.9770   10.9510   -2.5900 O   0  0  0  0  0  0  0  0  0  0  0  0
   -9.3400   12.7500   -0.1830 O   0  0  0  0  0  0  0  0  0  0  0  0
   -9.3580   12.8040   -3.6220 C   0  0  0  0  0  0  0  0  0  0  0  0
   -9.3970   13.8850   -4.6790 C   0  0  0  0  0  0  0  0  0  0  0  0
   -8.4180   15.4150   -3.0820 N   0  0  0  0  0  0  0  0  0  0  0  0
   -9.2330   15.2870   -4.1660 C   0  0  1  0  0  0  0  0  0  0  0  0
   -9.6830   16.2640   -4.6680 O   0  0  0  0  0  0  0  0  0  0  0  0
   -7.1760   12.7620   -3.6610 H   0  0  0  0  0  0  0  0  0  0  0  0
   -8.6610   11.0950    2.3180 H   0  0  0  0  0  0  0  0  0  0  0  0
   -7.3380    9.1140    3.2370 H   0  0  0  0  0  0  0  0  0  0  0  0
   -5.8430    7.9790    1.7850 H   0  0  0  0  0  0  0  0  0  0  0  0
   -4.7890    9.3980   -1.5450 H   0  0  0  0  0  0  0  0  0  0  0  0
   -5.7660    6.8540   -0.6450 H   0  0  0  0  0  0  0  0  0  0  0  0
   -4.8070    7.1440   -2.0890 H   0  0  0  0  0  0  0  0  0  0  0  0
   -2.9810    7.6320   -0.1570 H   0  0  0  0  0  0  0  0  0  0  0  0
   -4.0470    6.5250    0.7610 H   0  0  0  0  0  0  0  0  0  0  0  0
   -1.2570    4.9900   -1.4950 H   0  0  0  0  0  0  0  0  0  0  0  0
   -1.2010    6.1140   -0.1580 H   0  0  0  0  0  0  0  0  0  0  0  0
   -2.1810    4.5640    1.4650 H   0  0  0  0  0  0  0  0  0  0  0  0
   -2.3810    3.2850    0.2130 H   0  0  0  0  0  0  0  0  0  0  0  0
   -0.3150    3.5080    2.7250 H   0  0  0  0  0  0  0  0  0  0  0  0
   -0.8400    2.0910    1.7080 H   0  0  0  0  0  0  0  0  0  0  0  0
    1.9140    3.3090    1.4980 H   0  0  0  0  0  0  0  0  0  0  0  0
    1.4760    1.9990    2.6140 H   0  0  0  0  0  0  0  0  0  0  0  0
    3.1750    2.1570   -0.5730 H   0  0  0  0  0  0  0  0  0  0  0  0
    3.6220    1.2460    0.9730 H   0  0  0  0  0  0  0  0  0  0  0  0
    2.2420   -0.7120   -0.0360 H   0  0  0  0  0  0  0  0  0  0  0  0
    2.4350    0.0590   -1.6260 H   0  0  0  0  0  0  0  0  0  0  0  0
    2.0820   -2.2950   -1.4920 H   0  0  0  0  0  0  0  0  0  0  0  0
    2.9750   -3.2400   -2.7090 H   0  0  0  0  0  0  0  0  0  0  0  0
    3.0930   -3.4940    0.3700 H   0  0  0  0  0  0  0  0  0  0  0  0
    2.2890   -4.5830   -0.8730 H   0  0  0  0  0  0  0  0  0  0  0  0
    5.5330   -3.1620   -2.8050 H   0  0  0  0  0  0  0  0  0  0  0  0
    6.3310   -2.0030   -1.8660 H   0  0  0  0  0  0  0  0  0  0  0  0
    6.3960   -4.5660   -1.1110 H   0  0  0  0  0  0  0  0  0  0  0  0
    5.9350   -3.4000    0.1550 H   0  0  0  0  0  0  0  0  0  0  0  0
    2.8790   -6.5420   -1.6470 H   0  0  0  0  0  0  0  0  0  0  0  0
    2.7090   -8.7270   -0.9170 H   0  0  0  0  0  0  0  0  0  0  0  0
    5.7930   -5.6590    1.3080 H   0  0  0  0  0  0  0  0  0  0  0  0
    5.8580   -8.0680    1.9980 H   0  0  0  0  0  0  0  0  0  0  0  0
    3.9140  -10.2090   -2.0000 H   0  0  0  0  0  0  0  0  0  0  0  0
    5.5080   -9.7140   -4.3920 H   0  0  0  0  0  0  0  0  0  0  0  0
    3.8150   -9.3390   -4.2220 H   0  0  0  0  0  0  0  0  0  0  0  0
    4.2970  -11.1180   -4.4880 H   0  0  0  0  0  0  0  0  0  0  0  0
    6.7530  -12.9010   -0.5050 H   0  0  0  0  0  0  0  0  0  0  0  0
    8.1490  -11.7940    1.2520 H   0  0  0  0  0  0  0  0  0  0  0  0
    6.8510  -10.5760    1.2780 H   0  0  0  0  0  0  0  0  0  0  0  0
    7.7970  -10.7180   -0.1910 H   0  0  0  0  0  0  0  0  0  0  0  0
    4.6660  -13.4790    0.9400 H   0  0  0  0  0  0  0  0  0  0  0  0
    6.1750  -13.6240    1.7940 H   0  0  0  0  0  0  0  0  0  0  0  0
    5.3860  -13.5690    3.8360 H   0  0  0  0  0  0  0  0  0  0  0  0
    5.8130  -14.1660    6.2570 H   0  0  0  0  0  0  0  0  0  0  0  0
    5.6010  -13.3150    7.7040 H   0  0  0  0  0  0  0  0  0  0  0  0
    6.7350  -12.6310    6.3720 H   0  0  0  0  0  0  0  0  0  0  0  0
    3.1420   -8.0030    6.6900 H   0  0  0  0  0  0  0  0  0  0  0  0
    2.3330   -8.2100    5.2090 H   0  0  0  0  0  0  0  0  0  0  0  0
    3.9800   -7.7090    5.1530 H   0  0  0  0  0  0  0  0  0  0  0  0
    3.7740   -8.9220    3.2350 H   0  0  0  0  0  0  0  0  0  0  0  0
   -9.3780   11.8050   -4.0760 H   0  0  0  0  0  0  0  0  0  0  0  0
  -10.2140   12.7740   -2.9370 H   0  0  0  0  0  0  0  0  0  0  0  0
   -8.6350   13.7270   -5.4520 H   0  0  0  0  0  0  0  0  0  0  0  0
  -10.3800   13.8650   -5.1660 H   0  0  0  0  0  0  0  0  0  0  0  0
   -8.1680   16.3500   -2.7830 H   0  0  0  0  0  0  0  0  0  0  0  0
  2  1  1  6
  3  2  1  0
  4  3  1  0
  5  4  1  0
  6  5  1  1
  7  6  1  0
  8  7  1  0
  9  8  1  0
 10  9  1  0
 10 11  1  6
 12 11  1  0
 13 12  1  0
 14 13  1  0
 15 14  1  0
 16 15  1  0
 17 16  1  0
 18 17  1  0
 19 18  1  0
 20 19  1  0
 21 20  1  0
 22 21  1  0
 23 22  1  0
 24 23  1  0
 25 24  1  0
 26 25  1  0
 27 24  1  0
 28 27  1  0
 29 26  1  0
 29 28  1  0
 30 29  1  1
 31 30  1  0
 32 31  1  0
 33 30  1  0
 34 33  1  0
 35 34  1  0
 35 32  1  1
 36 35  1  0
 36 37  1  6
 38 37  1  0
 39 38  1  0
 40 39  1  0
 41 40  1  0
 42 39  1  0
 43 38  1  0
 44 43  1  0
 45 43  1  0
 46 45  1  1
 47 46  1  0
 48 47  1  0
 48 49  1  6
 50 49  1  0
 51 48  1  0
 51 52  1  1
 53 52  1  0
 54 51  1  0
 55 46  1  0
 55 54  1  0
 55 36  1  6
 56 23  1  0
 57 10  1  6
 57  6  1  0
 58 57  1  0
 58  4  1  0
 58 59  1  6
 60  5  1  0
 61  3  1  0
 62 61  1  0
 63  2  1  0
 64 63  1  0
 64 62  1  0
 64 65  1  6
  3 66  1  6
  7 67  1  1
  8 68  1  6
 69  9  1  0
 70 11  1  0
 71 12  1  0
 72 12  1  0
 73 13  1  0
 74 13  1  0
 75 15  1  0
 76 15  1  0
 77 16  1  0
 78 16  1  0
 79 18  1  0
 80 18  1  0
 81 19  1  0
 82 19  1  0
 83 21  1  0
 84 21  1  0
 85 22  1  0
 86 22  1  0
 87 25  1  0
 88 25  1  0
 89 26  1  0
 90 26  1  0
 91 27  1  0
 92 27  1  0
 93 28  1  0
 94 28  1  0
 31 95  1  6
 96 32  1  0
 97 33  1  0
 34 98  1  6
 99 40  1  0
100 41  1  0
101 41  1  0
102 41  1  0
 43103  1  6
104 44  1  0
105 44  1  0
106 44  1  0
107 45  1  0
108 45  1  0
 47109  1  1
110 50  1  0
111 50  1  0
112 50  1  0
113 53  1  0
114 53  1  0
115 53  1  0
 54116  1  6
117 61  1  0
118 61  1  0
119 62  1  0
120 62  1  0
121 63  1  0
M  END
$$$$
