
     RDKit          3D

121127  0  0  0  0  0  0  0  0999 V2000
   -7.5900   14.4610   -1.5480 O   0  0  0  0  0  0  0  0  0  0  0  0
   -7.9320   14.7820   -2.6940 C   0  0  2  0  0  0  0  0  0  0  0  0
   -8.3840   13.7550   -3.7900 C   0  0  1  0  0  0  0  0  0  0  0  0
   -8.6680   12.4550   -3.1940 N   0  0  0  0  0  0  0  0  0  0  0  0
   -9.8600   12.0360   -2.6320 C   0  0  0  0  0  0  0  0  0  0  0  0
   -9.6460   10.6770   -2.1470 C   0  0  1  0  0  0  0  0  0  0  0  0
  -10.5210    9.7210   -1.6110 C   0  0  0  0  0  0  0  0  0  0  0  0
   -9.9930    8.4880   -1.1100 C   0  0  2  0  0  0  0  0  0  0  0  0
   -8.5870    8.2040   -1.3050 C   0  0  1  0  0  0  0  0  0  0  0  0
   -7.7400    9.1930   -1.8740 C   0  0  1  0  0  0  0  0  0  0  0  0
   -6.4100    8.9400   -2.1320 N   0  0  0  0  0  0  0  0  0  0  0  0
   -5.8430    7.5360   -2.2910 C   0  0  0  0  0  0  0  0  0  0  0  0
   -5.0250    7.2220   -0.9450 C   0  0  0  0  0  0  0  0  0  0  0  0
   -4.1920    6.1630   -1.2720 O   0  0  0  0  0  0  0  0  0  0  0  0
   -3.1940    5.7450   -0.2580 C   0  0  0  0  0  0  0  0  0  0  0  0
   -2.2310    4.6080   -0.8040 C   0  0  0  0  0  0  0  0  0  0  0  0
   -1.3940    4.2380    0.2620 O   0  0  0  0  0  0  0  0  0  0  0  0
   -0.5410    3.1760   -0.1840 C   0  0  0  0  0  0  0  0  0  0  0  0
    0.6170    2.8540    0.7830 C   0  0  0  0  0  0  0  0  0  0  0  0
    1.3940    1.7230    0.2990 O   0  0  0  0  0  0  0  0  0  0  0  0
    2.3100    1.2090    1.2580 C   0  0  0  0  0  0  0  0  0  0  0  0
    2.7160   -0.2240    0.8030 C   0  0  0  0  0  0  0  0  0  0  0  0
    3.5320   -0.9060    1.9250 C   0  0  0  0  0  0  0  0  0  0  0  0
    4.1600   -2.0810    1.5760 N   0  0  0  0  0  0  0  0  0  0  0  0
    3.9200   -2.9420    0.4000 C   0  0  0  0  0  0  0  0  0  0  0  0
    3.1400   -4.2260    0.7120 C   0  0  0  0  0  0  0  0  0  0  0  0
    4.8270   -2.8990    2.6030 C   0  0  0  0  0  0  0  0  0  0  0  0
    3.9570   -4.1240    2.9630 C   0  0  0  0  0  0  0  0  0  0  0  0
    3.7590   -5.0040    1.8140 N   0  0  0  0  0  0  0  0  0  0  0  0
    4.1000   -6.3560    1.8120 C   0  0  1  0  0  0  0  0  0  0  0  0
    3.2650   -7.2810    1.1870 C   0  0  2  0  0  0  0  0  0  0  0  0
    3.7190   -8.5910    1.0000 C   0  0  0  0  0  0  0  0  0  0  0  0
    5.3530   -6.7930    2.2750 C   0  0  2  0  0  0  0  0  0  0  0  0
    5.6590   -8.1500    2.2450 C   0  0  1  0  0  0  0  0  0  0  0  0
    4.8430   -9.0740    1.5890 C   0  0  2  0  0  0  0  0  0  0  0  0
    5.2730  -10.4330    1.1730 C   0  0  2  0  0  0  0  0  0  0  0  0
    5.2210  -10.7070   -0.0570 N   0  0  0  0  0  0  0  0  0  0  0  0
    6.4400  -10.7710   -0.7230 N   0  0  0  0  0  0  0  0  0  0  0  0
    6.7290   -9.9890   -1.8340 C   0  0  1  0  0  0  0  0  0  0  0  0
    5.7760   -9.1010   -2.1050 N   0  0  0  0  0  0  0  0  0  0  0  0
    5.7950   -8.1540   -3.1680 C   0  0  0  0  0  0  0  0  0  0  0  0
    7.7930  -10.0030   -2.4520 O   0  0  0  0  0  0  0  0  0  0  0  0
    7.4740  -11.6880   -0.2610 C   0  0  1  0  0  0  0  0  0  0  0  0
    8.5090  -10.8990    0.6110 C   0  0  0  0  0  0  0  0  0  0  0  0
    6.9070  -12.9270    0.5870 C   0  0  0  0  0  0  0  0  0  0  0  0
    6.3920  -12.6210    1.9240 C   0  0  1  0  0  0  0  0  0  0  0  0
    6.9160  -13.3740    2.9440 C   0  0  1  0  0  0  0  0  0  0  0  0
    6.6490  -13.0680    4.2740 C   0  0  0  0  0  0  0  0  0  0  0  0
    7.3150  -13.7370    5.2430 O   0  0  0  0  0  0  0  0  0  0  0  0
    8.0120  -15.0390    5.0670 C   0  0  0  0  0  0  0  0  0  0  0  0
    5.7150  -12.0590    4.5670 C   0  0  2  0  0  0  0  0  0  0  0  0
    5.2440  -12.0640    5.8730 O   0  0  0  0  0  0  0  0  0  0  0  0
    5.1010  -10.7770    6.5250 C   0  0  0  0  0  0  0  0  0  0  0  0
    5.2410  -11.2140    3.5370 C   0  0  1  0  0  0  0  0  0  0  0  0
    5.6590  -11.4790    2.2270 C   0  0  0  0  0  0  0  0  0  0  0  0
    3.5600   -0.3620    3.0230 O   0  0  0  0  0  0  0  0  0  0  0  0
   -8.3150   10.3820   -2.3730 C   0  0  2  0  0  0  0  0  0  0  0  0
   -7.6790   11.5550   -3.0290 C   0  0  0  0  0  0  0  0  0  0  0  0
   -6.5260   11.6590   -3.3310 O   0  0  0  0  0  0  0  0  0  0  0  0
  -10.8450   12.7140   -2.6110 O   0  0  0  0  0  0  0  0  0  0  0  0
   -9.4100   14.4890   -4.6730 C   0  0  0  0  0  0  0  0  0  0  0  0
   -8.9240   15.8690   -5.1520 C   0  0  0  0  0  0  0  0  0  0  0  0
   -7.8220   16.0970   -3.0070 N   0  0  0  0  0  0  0  0  0  0  0  0
   -8.3730   16.7300   -4.0380 C   0  0  1  0  0  0  0  0  0  0  0  0
   -8.3030   17.9490   -4.1630 O   0  0  0  0  0  0  0  0  0  0  0  0
   -7.4400   13.6560   -4.3390 H   0  0  0  0  0  0  0  0  0  0  0  0
  -11.5840    9.9390   -1.5830 H   0  0  0  0  0  0  0  0  0  0  0  0
  -10.7300    7.7490   -0.8100 H   0  0  0  0  0  0  0  0  0  0  0  0
   -8.1280    7.2800   -0.9650 H   0  0  0  0  0  0  0  0  0  0  0  0
   -5.9020    9.6880   -2.5870 H   0  0  0  0  0  0  0  0  0  0  0  0
   -6.6350    6.7780   -2.3280 H   0  0  0  0  0  0  0  0  0  0  0  0
   -5.2010    7.4770   -3.1790 H   0  0  0  0  0  0  0  0  0  0  0  0
   -4.4550    8.0910   -0.5930 H   0  0  0  0  0  0  0  0  0  0  0  0
   -5.7600    6.9300   -0.1850 H   0  0  0  0  0  0  0  0  0  0  0  0
   -2.5410    6.6110   -0.0880 H   0  0  0  0  0  0  0  0  0  0  0  0
   -3.7630    5.3310    0.5830 H   0  0  0  0  0  0  0  0  0  0  0  0
   -2.8610    3.8120   -1.2200 H   0  0  0  0  0  0  0  0  0  0  0  0
   -1.5920    5.0330   -1.5890 H   0  0  0  0  0  0  0  0  0  0  0  0
   -1.0750    2.2320   -0.3500 H   0  0  0  0  0  0  0  0  0  0  0  0
   -0.0310    3.4970   -1.1010 H   0  0  0  0  0  0  0  0  0  0  0  0
    1.3340    3.6650    0.9570 H   0  0  0  0  0  0  0  0  0  0  0  0
    0.1090    2.5530    1.7070 H   0  0  0  0  0  0  0  0  0  0  0  0
    3.1020    1.9670    1.3050 H   0  0  0  0  0  0  0  0  0  0  0  0
    1.8310    1.2200    2.2440 H   0  0  0  0  0  0  0  0  0  0  0  0
    1.8290   -0.8500    0.6440 H   0  0  0  0  0  0  0  0  0  0  0  0
    3.3490   -0.2610   -0.0920 H   0  0  0  0  0  0  0  0  0  0  0  0
    3.5400   -2.4430   -0.5000 H   0  0  0  0  0  0  0  0  0  0  0  0
    4.8730   -3.3810    0.0820 H   0  0  0  0  0  0  0  0  0  0  0  0
    2.0980   -3.9430    0.9040 H   0  0  0  0  0  0  0  0  0  0  0  0
    3.1000   -4.7800   -0.2340 H   0  0  0  0  0  0  0  0  0  0  0  0
    5.8010   -3.2380    2.2280 H   0  0  0  0  0  0  0  0  0  0  0  0
    4.9760   -2.3520    3.5420 H   0  0  0  0  0  0  0  0  0  0  0  0
    4.5070   -4.6590    3.7470 H   0  0  0  0  0  0  0  0  0  0  0  0
    3.0600   -3.8540    3.5340 H   0  0  0  0  0  0  0  0  0  0  0  0
    2.3960   -6.9320    0.6380 H   0  0  0  0  0  0  0  0  0  0  0  0
    3.0610   -9.1420    0.3340 H   0  0  0  0  0  0  0  0  0  0  0  0
    6.0120   -6.1490    2.8510 H   0  0  0  0  0  0  0  0  0  0  0  0
    6.6430   -8.4500    2.5910 H   0  0  0  0  0  0  0  0  0  0  0  0
    4.8490   -9.3690   -1.7980 H   0  0  0  0  0  0  0  0  0  0  0  0
    6.7640   -7.7640   -3.5050 H   0  0  0  0  0  0  0  0  0  0  0  0
    5.2780   -7.2560   -2.8080 H   0  0  0  0  0  0  0  0  0  0  0  0
    5.1780   -8.4500   -4.0250 H   0  0  0  0  0  0  0  0  0  0  0  0
    8.1150  -12.0870   -1.0570 H   0  0  0  0  0  0  0  0  0  0  0  0
    9.2880  -10.4050    0.0170 H   0  0  0  0  0  0  0  0  0  0  0  0
    9.0010  -11.4770    1.4020 H   0  0  0  0  0  0  0  0  0  0  0  0
    7.9800  -10.1160    1.1690 H   0  0  0  0  0  0  0  0  0  0  0  0
    6.0400  -13.3050    0.0330 H   0  0  0  0  0  0  0  0  0  0  0  0
    7.5560  -13.8040    0.4760 H   0  0  0  0  0  0  0  0  0  0  0  0
    7.4500  -14.2820    2.6820 H   0  0  0  0  0  0  0  0  0  0  0  0
    8.8740  -14.9090    4.4020 H   0  0  0  0  0  0  0  0  0  0  0  0
    7.2920  -15.7630    4.6670 H   0  0  0  0  0  0  0  0  0  0  0  0
    8.3210  -15.3380    6.0760 H   0  0  0  0  0  0  0  0  0  0  0  0
    4.8620  -11.0560    7.5580 H   0  0  0  0  0  0  0  0  0  0  0  0
    4.2740  -10.1810    6.1190 H   0  0  0  0  0  0  0  0  0  0  0  0
    6.0440  -10.2170    6.5210 H   0  0  0  0  0  0  0  0  0  0  0  0
    4.4930  -10.4410    3.6890 H   0  0  0  0  0  0  0  0  0  0  0  0
   -9.7610   13.8280   -5.4750 H   0  0  0  0  0  0  0  0  0  0  0  0
  -10.2900   14.7480   -4.0710 H   0  0  0  0  0  0  0  0  0  0  0  0
   -8.1700   15.6680   -5.9230 H   0  0  0  0  0  0  0  0  0  0  0  0
   -9.7640   16.4210   -5.5910 H   0  0  0  0  0  0  0  0  0  0  0  0
   -7.5110   16.6900   -2.2460 H   0  0  0  0  0  0  0  0  0  0  0  0
  2  1  1  6
  3  2  1  0
  4  3  1  0
  5  4  1  0
  6  5  1  6
  7  6  1  0
  8  7  1  0
  9  8  1  0
 10  9  1  0
 10 11  1  6
 12 11  1  0
 13 12  1  0
 14 13  1  0
 15 14  1  0
 16 15  1  0
 17 16  1  0
 18 17  1  0
 19 18  1  0
 20 19  1  0
 21 20  1  0
 22 21  1  0
 23 22  1  0
 24 23  1  0
 25 24  1  0
 26 25  1  0
 27 24  1  0
 28 27  1  0
 29 28  1  0
 29 26  1  0
 30 29  1  6
 31 30  1  0
 32 31  1  0
 33 30  1  0
 34 33  1  0
 35 32  1  6
 35 34  1  0
 36 35  1  0
 36 37  1  1
 38 37  1  0
 39 38  1  0
 40 39  1  0
 41 40  1  0
 39 42  1  1
 43 38  1  0
 44 43  1  0
 45 43  1  0
 46 45  1  6
 47 46  1  0
 48 47  1  0
 49 48  1  0
 50 49  1  0
 51 48  1  0
 51 52  1  6
 53 52  1  0
 54 51  1  0
 55 54  1  0
 55 36  1  0
 55 46  1  0
 56 23  1  0
 57 10  1  0
 57  6  1  0
 57 58  1  1
 58  4  1  0
 59 58  1  0
 60  5  1  0
 61  3  1  0
 62 61  1  0
 63  2  1  0
 64 63  1  0
 64 62  1  0
 64 65  1  6
  3 66  1  6
 67  7  1  0
  8 68  1  6
  9 69  1  1
 70 11  1  0
 71 12  1  0
 72 12  1  0
 73 13  1  0
 74 13  1  0
 75 15  1  0
 76 15  1  0
 77 16  1  0
 78 16  1  0
 79 18  1  0
 80 18  1  0
 81 19  1  0
 82 19  1  0
 83 21  1  0
 84 21  1  0
 85 22  1  0
 86 22  1  0
 87 25  1  0
 88 25  1  0
 89 26  1  0
 90 26  1  0
 91 27  1  0
 92 27  1  0
 93 28  1  0
 94 28  1  0
 31 95  1  6
 96 32  1  0
 33 97  1  1
 34 98  1  6
 99 40  1  0
100 41  1  0
101 41  1  0
102 41  1  0
 43103  1  6
104 44  1  0
105 44  1  0
106 44  1  0
107 45  1  0
108 45  1  0
 47109  1  6
110 50  1  0
111 50  1  0
112 50  1  0
113 53  1  0
114 53  1  0
115 53  1  0
 54116  1  6
117 61  1  0
118 61  1  0
119 62  1  0
120 62  1  0
121 63  1  0
M  END
$$$$
