
     RDKit          3D

121127  0  0  0  0  0  0  0  0999 V2000
   -9.8610   14.1390   -2.1610 O   0  0  0  0  0  0  0  0  0  0  0  0
   -9.3910   14.3760   -3.2660 C   0  0  2  0  0  0  0  0  0  0  0  0
   -8.4520   13.3650   -4.0420 C   0  0  1  0  0  0  0  0  0  0  0  0
   -8.5650   11.9370   -3.7340 N   0  0  0  0  0  0  0  0  0  0  0  0
   -9.7590   11.2450   -3.5940 C   0  0  2  0  0  0  0  0  0  0  0  0
   -9.2980    9.8270   -3.2830 C   0  0  2  0  0  0  0  0  0  0  0  0
  -10.1010    8.6520   -3.0150 C   0  0  2  0  0  0  0  0  0  0  0  0
   -9.3360    7.5350   -2.7260 C   0  0  1  0  0  0  0  0  0  0  0  0
   -7.9570    7.5830   -2.3750 C   0  0  2  0  0  0  0  0  0  0  0  0
   -7.2490    8.7680   -2.5620 C   0  0  1  0  0  0  0  0  0  0  0  0
   -5.8950    8.8200   -2.4040 N   0  0  0  0  0  0  0  0  0  0  0  0
   -4.9250    7.7470   -2.9160 C   0  0  0  0  0  0  0  0  0  0  0  0
   -3.9180    7.3520   -1.7540 C   0  0  0  0  0  0  0  0  0  0  0  0
   -3.2160    6.1350   -2.1180 O   0  0  0  0  0  0  0  0  0  0  0  0
   -2.1960    5.6560   -1.2080 C   0  0  0  0  0  0  0  0  0  0  0  0
   -1.7100    4.3020   -1.6150 C   0  0  0  0  0  0  0  0  0  0  0  0
   -0.6910    3.7740   -0.7750 O   0  0  0  0  0  0  0  0  0  0  0  0
    0.6530    4.3220   -0.6790 C   0  0  0  0  0  0  0  0  0  0  0  0
    1.3850    3.6230    0.5210 C   0  0  0  0  0  0  0  0  0  0  0  0
    1.4900    2.2090    0.2060 O   0  0  0  0  0  0  0  0  0  0  0  0
    2.0330    1.4750    1.3200 C   0  0  0  0  0  0  0  0  0  0  0  0
    2.2680   -0.0650    0.9160 C   0  0  0  0  0  0  0  0  0  0  0  0
    3.1670   -0.6980    1.9230 C   0  0  1  0  0  0  0  0  0  0  0  0
    3.8140   -1.8830    1.6020 N   0  0  0  0  0  0  0  0  0  0  0  0
    3.2720   -2.8640    0.6380 C   0  0  0  0  0  0  0  0  0  0  0  0
    2.6270   -4.1110    1.2270 C   0  0  0  0  0  0  0  0  0  0  0  0
    4.6710   -2.5880    2.5860 C   0  0  0  0  0  0  0  0  0  0  0  0
    3.9170   -3.7410    3.2900 C   0  0  0  0  0  0  0  0  0  0  0  0
    3.5410   -4.7000    2.2700 N   0  0  0  0  0  0  0  0  0  0  0  0
    3.9620   -6.0510    2.1810 C   0  0  2  0  0  0  0  0  0  0  0  0
    3.0590   -7.0930    1.7860 C   0  0  2  0  0  0  0  0  0  0  0  0
    3.5110   -8.4190    1.8960 C   0  0  2  0  0  0  0  0  0  0  0  0
    5.2030   -6.4430    2.6780 C   0  0  0  0  0  0  0  0  0  0  0  0
    5.7000   -7.7720    2.7010 C   0  0  1  0  0  0  0  0  0  0  0  0
    4.8770   -8.7510    2.2420 C   0  0  0  0  0  0  0  0  0  0  0  0
    5.3510  -10.1780    2.0540 C   0  0  0  0  0  0  0  0  0  0  0  0
    5.1540  -10.6990    0.8990 N   0  0  0  0  0  0  0  0  0  0  0  0
    6.1580  -10.8720    0.0070 N   0  0  0  0  0  0  0  0  0  0  0  0
    6.2520  -10.1000   -1.1180 C   0  0  2  0  0  0  0  0  0  0  0  0
    5.1610   -9.2890   -1.3110 N   0  0  0  0  0  0  0  0  0  0  0  0
    4.8880   -8.3300   -2.3310 C   0  0  0  0  0  0  0  0  0  0  0  0
    7.1130  -10.1590   -1.9770 O   0  0  0  0  0  0  0  0  0  0  0  0
    7.1820  -11.8880    0.3600 C   0  0  1  0  0  0  0  0  0  0  0  0
    8.5460  -11.2980    0.6020 C   0  0  0  0  0  0  0  0  0  0  0  0
    6.7360  -12.8360    1.5400 C   0  0  0  0  0  0  0  0  0  0  0  0
    6.7440  -12.1800    2.9790 C   0  0  2  0  0  0  0  0  0  0  0  0
    7.2150  -12.8910    4.0790 C   0  0  1  0  0  0  0  0  0  0  0  0
    6.9970  -12.4590    5.4210 C   0  0  0  0  0  0  0  0  0  0  0  0
    7.4020  -13.1440    6.5050 O   0  0  0  0  0  0  0  0  0  0  0  0
    7.7950  -14.5490    6.3830 C   0  0  0  0  0  0  0  0  0  0  0  0
    6.3390  -11.2540    5.6450 C   0  0  0  0  0  0  0  0  0  0  0  0
    6.1320  -10.7580    6.9480 O   0  0  0  0  0  0  0  0  0  0  0  0
    5.2200   -9.6100    7.3290 C   0  0  0  0  0  0  0  0  0  0  0  0
    5.9020  -10.4720    4.5870 C   0  0  1  0  0  0  0  0  0  0  0  0
    6.0440  -10.9340    3.2370 C   0  0  2  0  0  0  0  0  0  0  0  0
    3.3960   -0.1310    2.9400 O   0  0  0  0  0  0  0  0  0  0  0  0
   -7.9200    9.8870   -3.0300 C   0  0  1  0  0  0  0  0  0  0  0  0
   -7.4880   11.1660   -3.4690 C   0  0  2  0  0  0  0  0  0  0  0  0
   -6.3660   11.6610   -3.5400 O   0  0  0  0  0  0  0  0  0  0  0  0
  -10.7690   11.6700   -4.0010 O   0  0  0  0  0  0  0  0  0  0  0  0
   -8.7340   13.5670   -5.5690 C   0  0  0  0  0  0  0  0  0  0  0  0
   -8.6350   15.0860   -5.9950 C   0  0  0  0  0  0  0  0  0  0  0  0
   -9.6040   15.6100   -3.7180 N   0  0  0  0  0  0  0  0  0  0  0  0
   -9.4510   16.0220   -5.0450 C   0  0  1  0  0  0  0  0  0  0  0  0
   -9.8560   17.0840   -5.4120 O   0  0  0  0  0  0  0  0  0  0  0  0
   -7.4270   13.7400   -3.9250 H   0  0  0  0  0  0  0  0  0  0  0  0
  -11.1720    8.6830   -3.1930 H   0  0  0  0  0  0  0  0  0  0  0  0
   -9.7560    6.5420   -2.5950 H   0  0  0  0  0  0  0  0  0  0  0  0
   -7.4510    6.6710   -2.0720 H   0  0  0  0  0  0  0  0  0  0  0  0
   -5.5850    9.7760   -2.5190 H   0  0  0  0  0  0  0  0  0  0  0  0
   -5.3900    6.7910   -3.1870 H   0  0  0  0  0  0  0  0  0  0  0  0
   -4.3780    8.1120   -3.7940 H   0  0  0  0  0  0  0  0  0  0  0  0
   -3.1430    8.1250   -1.6810 H   0  0  0  0  0  0  0  0  0  0  0  0
   -4.5280    7.1980   -0.8550 H   0  0  0  0  0  0  0  0  0  0  0  0
   -1.3550    6.3580   -1.1520 H   0  0  0  0  0  0  0  0  0  0  0  0
   -2.6890    5.5540   -0.2340 H   0  0  0  0  0  0  0  0  0  0  0  0
   -2.6080    3.6740   -1.6690 H   0  0  0  0  0  0  0  0  0  0  0  0
   -1.5650    4.2500   -2.7010 H   0  0  0  0  0  0  0  0  0  0  0  0
    1.2420    4.1970   -1.5970 H   0  0  0  0  0  0  0  0  0  0  0  0
    0.6790    5.4050   -0.5080 H   0  0  0  0  0  0  0  0  0  0  0  0
    2.3930    4.0080    0.7180 H   0  0  0  0  0  0  0  0  0  0  0  0
    0.8370    3.7180    1.4670 H   0  0  0  0  0  0  0  0  0  0  0  0
    3.0090    1.8890    1.6030 H   0  0  0  0  0  0  0  0  0  0  0  0
    1.4720    1.6130    2.2520 H   0  0  0  0  0  0  0  0  0  0  0  0
    1.4020   -0.7100    0.7190 H   0  0  0  0  0  0  0  0  0  0  0  0
    2.7940   -0.0670   -0.0460 H   0  0  0  0  0  0  0  0  0  0  0  0
    2.6360   -2.4400   -0.1490 H   0  0  0  0  0  0  0  0  0  0  0  0
    4.1310   -3.2130    0.0510 H   0  0  0  0  0  0  0  0  0  0  0  0
    1.7320   -3.8010    1.7810 H   0  0  0  0  0  0  0  0  0  0  0  0
    2.2870   -4.8240    0.4660 H   0  0  0  0  0  0  0  0  0  0  0  0
    5.5760   -3.0640    2.1890 H   0  0  0  0  0  0  0  0  0  0  0  0
    5.0970   -1.9320    3.3550 H   0  0  0  0  0  0  0  0  0  0  0  0
    4.5230   -4.2070    4.0770 H   0  0  0  0  0  0  0  0  0  0  0  0
    3.0220   -3.2780    3.7230 H   0  0  0  0  0  0  0  0  0  0  0  0
    2.1090   -6.8800    1.3070 H   0  0  0  0  0  0  0  0  0  0  0  0
    2.8160   -9.1750    1.5430 H   0  0  0  0  0  0  0  0  0  0  0  0
    5.8750   -5.7290    3.1450 H   0  0  0  0  0  0  0  0  0  0  0  0
    6.7230   -7.9590    3.0150 H   0  0  0  0  0  0  0  0  0  0  0  0
    4.5400   -9.4880   -0.5370 H   0  0  0  0  0  0  0  0  0  0  0  0
    5.6420   -8.5860   -3.0860 H   0  0  0  0  0  0  0  0  0  0  0  0
    4.8760   -7.2750   -2.0300 H   0  0  0  0  0  0  0  0  0  0  0  0
    3.8940   -8.5390   -2.7460 H   0  0  0  0  0  0  0  0  0  0  0  0
    7.2660  -12.5530   -0.5080 H   0  0  0  0  0  0  0  0  0  0  0  0
    8.9040  -10.7080   -0.2500 H   0  0  0  0  0  0  0  0  0  0  0  0
    9.2360  -12.1380    0.4570 H   0  0  0  0  0  0  0  0  0  0  0  0
    8.7280  -10.8050    1.5650 H   0  0  0  0  0  0  0  0  0  0  0  0
    5.7470  -13.2930    1.4060 H   0  0  0  0  0  0  0  0  0  0  0  0
    7.4630  -13.6530    1.6200 H   0  0  0  0  0  0  0  0  0  0  0  0
    7.6060  -13.8970    3.9540 H   0  0  0  0  0  0  0  0  0  0  0  0
    8.5580  -14.6630    5.6040 H   0  0  0  0  0  0  0  0  0  0  0  0
    6.9270  -15.1240    6.0370 H   0  0  0  0  0  0  0  0  0  0  0  0
    8.1260  -14.9010    7.3680 H   0  0  0  0  0  0  0  0  0  0  0  0
    5.6370   -8.6420    7.0240 H   0  0  0  0  0  0  0  0  0  0  0  0
    4.9410   -9.6720    8.3880 H   0  0  0  0  0  0  0  0  0  0  0  0
    4.3030   -9.7430    6.7420 H   0  0  0  0  0  0  0  0  0  0  0  0
    5.3040   -9.5800    4.7520 H   0  0  0  0  0  0  0  0  0  0  0  0
   -8.0830   12.9710   -6.2200 H   0  0  0  0  0  0  0  0  0  0  0  0
   -9.6970   13.1210   -5.8460 H   0  0  0  0  0  0  0  0  0  0  0  0
   -7.5830   15.3950   -6.0260 H   0  0  0  0  0  0  0  0  0  0  0  0
   -9.0950   15.1960   -6.9850 H   0  0  0  0  0  0  0  0  0  0  0  0
  -10.2550   16.1330   -3.1440 H   0  0  0  0  0  0  0  0  0  0  0  0
  2  1  1  1
  3  2  1  0
  4  3  1  0
  5  4  1  0
  6  5  1  1
  7  6  1  0
  8  7  1  0
  9  8  1  0
 10  9  1  0
 10 11  1  6
 12 11  1  0
 13 12  1  0
 14 13  1  0
 15 14  1  0
 16 15  1  0
 17 16  1  0
 18 17  1  0
 19 18  1  0
 20 19  1  0
 21 20  1  0
 22 21  1  0
 23 22  1  0
 24 23  1  0
 25 24  1  0
 26 25  1  0
 27 24  1  0
 28 27  1  0
 29 28  1  0
 29 26  1  0
 30 29  1  1
 31 30  1  0
 32 31  1  0
 33 30  1  0
 34 33  1  0
 35 32  1  0
 35 34  1  0
 36 35  1  0
 37 36  1  0
 38 37  1  0
 39 38  1  0
 40 39  1  0
 41 40  1  0
 39 42  1  6
 43 38  1  0
 44 43  1  0
 45 43  1  0
 46 45  1  1
 47 46  1  0
 48 47  1  0
 49 48  1  0
 50 49  1  0
 51 48  1  0
 52 51  1  0
 53 52  1  0
 54 51  1  0
 55 36  1  1
 55 46  1  0
 55 54  1  0
 23 56  1  6
 57 10  1  0
 57  6  1  0
 57 58  1  6
 58  4  1  0
 58 59  1  1
  5 60  1  6
 61  3  1  0
 62 61  1  0
 63  2  1  0
 64 62  1  0
 64 63  1  0
 64 65  1  1
  3 66  1  6
  7 67  1  6
  8 68  1  1
  9 69  1  6
 70 11  1  0
 71 12  1  0
 72 12  1  0
 73 13  1  0
 74 13  1  0
 75 15  1  0
 76 15  1  0
 77 16  1  0
 78 16  1  0
 79 18  1  0
 80 18  1  0
 81 19  1  0
 82 19  1  0
 83 21  1  0
 84 21  1  0
 85 22  1  0
 86 22  1  0
 87 25  1  0
 88 25  1  0
 89 26  1  0
 90 26  1  0
 91 27  1  0
 92 27  1  0
 93 28  1  0
 94 28  1  0
 31 95  1  6
 32 96  1  6
 97 33  1  0
 34 98  1  6
 99 40  1  0
100 41  1  0
101 41  1  0
102 41  1  0
 43103  1  6
104 44  1  0
105 44  1  0
106 44  1  0
107 45  1  0
108 45  1  0
 47109  1  1
110 50  1  0
111 50  1  0
112 50  1  0
113 53  1  0
114 53  1  0
115 53  1  0
 54116  1  1
117 61  1  0
118 61  1  0
119 62  1  0
120 62  1  0
121 63  1  0
M  END
$$$$
