
     RDKit          3D

121127  0  0  0  0  0  0  0  0999 V2000
   -7.8890   14.5950    0.3120 O   0  0  0  0  0  0  0  0  0  0  0  0
   -8.3650   14.7490   -0.7880 C   0  0  2  0  0  0  0  0  0  0  0  0
   -8.3900   13.6660   -1.9620 C   0  0  1  0  0  0  0  0  0  0  0  0
   -8.3010   12.2680   -1.4250 N   0  0  0  0  0  0  0  0  0  0  0  0
   -9.0710   11.7690   -0.3830 C   0  0  2  0  0  0  0  0  0  0  0  0
   -8.7590   10.2990   -0.3150 C   0  0  2  0  0  0  0  0  0  0  0  0
   -9.1800    9.2600    0.5730 C   0  0  0  0  0  0  0  0  0  0  0  0
   -8.6610    7.9900    0.2790 C   0  0  0  0  0  0  0  0  0  0  0  0
   -7.8010    7.7370   -0.7010 C   0  0  0  0  0  0  0  0  0  0  0  0
   -7.3530    8.7400   -1.5520 C   0  0  0  0  0  0  0  0  0  0  0  0
   -6.5070    8.5230   -2.6220 N   0  0  0  0  0  0  0  0  0  0  0  0
   -5.9360    7.2940   -3.0080 C   0  0  0  0  0  0  0  0  0  0  0  0
   -4.7420    6.9320   -2.1180 C   0  0  0  0  0  0  0  0  0  0  0  0
   -4.0710    5.7430   -2.5460 O   0  0  0  0  0  0  0  0  0  0  0  0
   -3.0660    5.1150   -1.6840 C   0  0  0  0  0  0  0  0  0  0  0  0
   -2.1530    4.3940   -2.6480 C   0  0  0  0  0  0  0  0  0  0  0  0
   -1.1910    3.7890   -1.7620 O   0  0  0  0  0  0  0  0  0  0  0  0
   -0.3600    2.6910   -2.2240 C   0  0  0  0  0  0  0  0  0  0  0  0
    0.7490    2.5830   -1.1270 C   0  0  0  0  0  0  0  0  0  0  0  0
    1.2720    1.2530   -1.1340 O   0  0  0  0  0  0  0  0  0  0  0  0
    1.9870    1.0570    0.1380 C   0  0  0  0  0  0  0  0  0  0  0  0
    2.6550   -0.3090   -0.0330 C   0  0  0  0  0  0  0  0  0  0  0  0
    3.2550   -0.8380    1.2640 C   0  0  0  0  0  0  0  0  0  0  0  0
    3.7200   -2.1340    1.2130 N   0  0  0  0  0  0  0  0  0  0  0  0
    3.8710   -2.9960   -0.0000 C   0  0  0  0  0  0  0  0  0  0  0  0
    3.0600   -4.3040   -0.0570 C   0  0  0  0  0  0  0  0  0  0  0  0
    3.8330   -3.0180    2.4650 C   0  0  0  0  0  0  0  0  0  0  0  0
    2.9270   -4.3440    2.3830 C   0  0  0  0  0  0  0  0  0  0  0  0
    3.2700   -5.1000    1.1670 N   0  0  0  0  0  0  0  0  0  0  0  0
    3.5600   -6.4820    1.0810 C   0  0  1  0  0  0  0  0  0  0  0  0
    3.0120   -7.3410    0.1410 C   0  0  0  0  0  0  0  0  0  0  0  0
    3.4800   -8.7010    0.0200 C   0  0  2  0  0  0  0  0  0  0  0  0
    4.5790   -6.9050    1.9370 C   0  0  2  0  0  0  0  0  0  0  0  0
    5.0750   -8.2260    1.8200 C   0  0  1  0  0  0  0  0  0  0  0  0
    4.5290   -9.1240    0.8250 C   0  0  2  0  0  0  0  0  0  0  0  0
    5.2030  -10.4360    0.5800 C   0  0  1  0  0  0  0  0  0  0  0  0
    5.5970  -10.7160   -0.6360 N   0  0  0  0  0  0  0  0  0  0  0  0
    6.9280  -10.5110   -1.0140 N   0  0  0  0  0  0  0  0  0  0  0  0
    7.2560   -9.4500   -1.8620 C   0  0  0  0  0  0  0  0  0  0  0  0
    6.1590   -8.7880   -2.3490 N   0  0  0  0  0  0  0  0  0  0  0  0
    6.1690   -7.7930   -3.3980 C   0  0  0  0  0  0  0  0  0  0  0  0
    8.3630   -9.1350   -2.1650 O   0  0  0  0  0  0  0  0  0  0  0  0
    8.0170  -11.1840   -0.2260 C   0  0  1  0  0  0  0  0  0  0  0  0
    8.9510  -10.1630    0.6420 C   0  0  0  0  0  0  0  0  0  0  0  0
    7.5800  -12.4160    0.5070 C   0  0  0  0  0  0  0  0  0  0  0  0
    6.9250  -11.9840    1.8250 C   0  0  2  0  0  0  0  0  0  0  0  0
    7.4560  -12.5420    3.0130 C   0  0  0  0  0  0  0  0  0  0  0  0
    6.8510  -12.2770    4.2400 C   0  0  2  0  0  0  0  0  0  0  0  0
    7.3040  -13.0000    5.3150 O   0  0  0  0  0  0  0  0  0  0  0  0
    8.3590  -13.9830    5.2780 C   0  0  0  0  0  0  0  0  0  0  0  0
    5.6140  -11.5280    4.3080 C   0  0  1  0  0  0  0  0  0  0  0  0
    4.9220  -11.2330    5.4820 O   0  0  0  0  0  0  0  0  0  0  0  0
    3.8570  -10.2810    5.6140 C   0  0  0  0  0  0  0  0  0  0  0  0
    5.1760  -10.9650    3.0570 C   0  0  0  0  0  0  0  0  0  0  0  0
    5.7880  -11.1510    1.7710 C   0  0  0  0  0  0  0  0  0  0  0  0
    3.2980   -0.1750    2.3090 O   0  0  0  0  0  0  0  0  0  0  0  0
   -7.8050   10.0200   -1.2930 C   0  0  0  0  0  0  0  0  0  0  0  0
   -7.4720   11.3350   -1.9740 C   0  0  1  0  0  0  0  0  0  0  0  0
   -6.7600   11.5440   -2.9510 O   0  0  0  0  0  0  0  0  0  0  0  0
  -10.0060   12.4220    0.1400 O   0  0  0  0  0  0  0  0  0  0  0  0
   -9.6190   13.8230   -2.9320 C   0  0  0  0  0  0  0  0  0  0  0  0
   -9.9060   15.2730   -3.2900 C   0  0  0  0  0  0  0  0  0  0  0  0
   -8.7100   16.0290   -1.1960 N   0  0  0  0  0  0  0  0  0  0  0  0
   -9.3560   16.4020   -2.3820 C   0  0  2  0  0  0  0  0  0  0  0  0
   -9.6080   17.5410   -2.6390 O   0  0  0  0  0  0  0  0  0  0  0  0
   -7.5260   13.7910   -2.6270 H   0  0  0  0  0  0  0  0  0  0  0  0
   -9.8240    9.5430    1.4010 H   0  0  0  0  0  0  0  0  0  0  0  0
   -8.9570    7.1630    0.9170 H   0  0  0  0  0  0  0  0  0  0  0  0
   -7.4530    6.7220   -0.8610 H   0  0  0  0  0  0  0  0  0  0  0  0
   -6.0920    9.3880   -2.9440 H   0  0  0  0  0  0  0  0  0  0  0  0
   -6.6980    6.5130   -2.9000 H   0  0  0  0  0  0  0  0  0  0  0  0
   -5.5940    7.4060   -4.0440 H   0  0  0  0  0  0  0  0  0  0  0  0
   -4.0060    7.7370   -2.2340 H   0  0  0  0  0  0  0  0  0  0  0  0
   -5.0860    6.8780   -1.0770 H   0  0  0  0  0  0  0  0  0  0  0  0
   -2.5940    5.9460   -1.1460 H   0  0  0  0  0  0  0  0  0  0  0  0
   -3.5930    4.4530   -0.9860 H   0  0  0  0  0  0  0  0  0  0  0  0
   -2.7760    3.6510   -3.1600 H   0  0  0  0  0  0  0  0  0  0  0  0
   -1.7280    5.0810   -3.3900 H   0  0  0  0  0  0  0  0  0  0  0  0
   -0.8810    1.7260   -2.1870 H   0  0  0  0  0  0  0  0  0  0  0  0
    0.1670    2.8330   -3.1750 H   0  0  0  0  0  0  0  0  0  0  0  0
    1.5230    3.3440   -1.2860 H   0  0  0  0  0  0  0  0  0  0  0  0
    0.3650    2.9100   -0.1520 H   0  0  0  0  0  0  0  0  0  0  0  0
    2.7890    1.8030    0.2100 H   0  0  0  0  0  0  0  0  0  0  0  0
    1.2140    1.1530    0.9110 H   0  0  0  0  0  0  0  0  0  0  0  0
    1.8800   -1.0310   -0.3190 H   0  0  0  0  0  0  0  0  0  0  0  0
    3.4420   -0.3680   -0.7960 H   0  0  0  0  0  0  0  0  0  0  0  0
    3.7630   -2.4430   -0.9410 H   0  0  0  0  0  0  0  0  0  0  0  0
    4.9050   -3.3480   -0.1100 H   0  0  0  0  0  0  0  0  0  0  0  0
    1.9990   -4.1060   -0.2540 H   0  0  0  0  0  0  0  0  0  0  0  0
    3.3980   -4.8620   -0.9400 H   0  0  0  0  0  0  0  0  0  0  0  0
    4.8330   -3.4700    2.4480 H   0  0  0  0  0  0  0  0  0  0  0  0
    3.7300   -2.3560    3.3340 H   0  0  0  0  0  0  0  0  0  0  0  0
    3.0410   -4.9880    3.2640 H   0  0  0  0  0  0  0  0  0  0  0  0
    1.8530   -4.1240    2.3310 H   0  0  0  0  0  0  0  0  0  0  0  0
    2.2300   -7.0690   -0.5610 H   0  0  0  0  0  0  0  0  0  0  0  0
    3.1560   -9.3790   -0.7640 H   0  0  0  0  0  0  0  0  0  0  0  0
    4.9290   -6.2470    2.7280 H   0  0  0  0  0  0  0  0  0  0  0  0
    5.9640   -8.5260    2.3660 H   0  0  0  0  0  0  0  0  0  0  0  0
    5.3130   -9.1570   -1.9320 H   0  0  0  0  0  0  0  0  0  0  0  0
    6.0620   -6.7630   -3.0370 H   0  0  0  0  0  0  0  0  0  0  0  0
    5.2560   -8.0750   -3.9360 H   0  0  0  0  0  0  0  0  0  0  0  0
    7.0080   -7.8440   -4.1030 H   0  0  0  0  0  0  0  0  0  0  0  0
    8.6700  -11.5060   -1.0470 H   0  0  0  0  0  0  0  0  0  0  0  0
    9.3750   -9.3360    0.0590 H   0  0  0  0  0  0  0  0  0  0  0  0
    9.7410  -10.7850    1.0810 H   0  0  0  0  0  0  0  0  0  0  0  0
    8.3960   -9.7260    1.4810 H   0  0  0  0  0  0  0  0  0  0  0  0
    6.8850  -12.9580   -0.1470 H   0  0  0  0  0  0  0  0  0  0  0  0
    8.5150  -12.9490    0.7170 H   0  0  0  0  0  0  0  0  0  0  0  0
    8.3920  -13.0870    2.9320 H   0  0  0  0  0  0  0  0  0  0  0  0
    8.6460  -14.3860    6.2570 H   0  0  0  0  0  0  0  0  0  0  0  0
    9.3070  -13.4870    5.0380 H   0  0  0  0  0  0  0  0  0  0  0  0
    8.1290  -14.8730    4.6780 H   0  0  0  0  0  0  0  0  0  0  0  0
    3.5250  -10.1380    6.6500 H   0  0  0  0  0  0  0  0  0  0  0  0
    2.9170  -10.7330    5.2740 H   0  0  0  0  0  0  0  0  0  0  0  0
    4.0140   -9.3110    5.1260 H   0  0  0  0  0  0  0  0  0  0  0  0
    4.3110  -10.3080    3.0680 H   0  0  0  0  0  0  0  0  0  0  0  0
   -9.5390   13.2560   -3.8670 H   0  0  0  0  0  0  0  0  0  0  0  0
  -10.5180   13.4560   -2.4210 H   0  0  0  0  0  0  0  0  0  0  0  0
   -9.5260   15.5860   -4.2710 H   0  0  0  0  0  0  0  0  0  0  0  0
  -10.9890   15.3810   -3.4310 H   0  0  0  0  0  0  0  0  0  0  0  0
   -8.5100   16.8310   -0.6100 H   0  0  0  0  0  0  0  0  0  0  0  0
  2  1  1  6
  3  2  1  0
  4  3  1  0
  5  4  1  0
  6  5  1  0
  6  7  1  1
  8  7  1  0
  9  8  1  0
 10  9  1  0
 11 10  1  0
 12 11  1  0
 13 12  1  0
 14 13  1  0
 15 14  1  0
 16 15  1  0
 17 16  1  0
 18 17  1  0
 19 18  1  0
 20 19  1  0
 21 20  1  0
 22 21  1  0
 23 22  1  0
 24 23  1  0
 25 24  1  0
 26 25  1  0
 27 24  1  0
 28 27  1  0
 29 28  1  0
 29 26  1  0
 30 29  1  6
 31 30  1  0
 32 31  1  0
 33 30  1  0
 34 33  1  0
 35 34  1  0
 35 32  1  0
 35 36  1  6
 36 37  1  6
 38 37  1  0
 39 38  1  0
 40 39  1  0
 41 40  1  0
 42 39  1  0
 43 38  1  0
 44 43  1  0
 45 43  1  0
 46 45  1  0
 46 47  1  6
 48 47  1  0
 48 49  1  6
 50 49  1  0
 51 48  1  0
 51 52  1  1
 53 52  1  0
 54 51  1  0
 55 54  1  0
 55 36  1  0
 55 46  1  0
 56 23  1  0
 57 10  1  0
 57  6  1  0
 58 57  1  0
 58  4  1  0
 58 59  1  6
  5 60  1  6
 61  3  1  0
 62 61  1  0
 63  2  1  0
 64 63  1  0
 64 62  1  0
 64 65  1  1
  3 66  1  6
 67  7  1  0
 68  8  1  0
 69  9  1  0
 70 11  1  0
 71 12  1  0
 72 12  1  0
 73 13  1  0
 74 13  1  0
 75 15  1  0
 76 15  1  0
 77 16  1  0
 78 16  1  0
 79 18  1  0
 80 18  1  0
 81 19  1  0
 82 19  1  0
 83 21  1  0
 84 21  1  0
 85 22  1  0
 86 22  1  0
 87 25  1  0
 88 25  1  0
 89 26  1  0
 90 26  1  0
 91 27  1  0
 92 27  1  0
 93 28  1  0
 94 28  1  0
 95 31  1  0
 32 96  1  6
 33 97  1  1
 34 98  1  6
 99 40  1  0
100 41  1  0
101 41  1  0
102 41  1  0
 43103  1  6
104 44  1  0
105 44  1  0
106 44  1  0
107 45  1  0
108 45  1  0
109 47  1  0
110 50  1  0
111 50  1  0
112 50  1  0
113 53  1  0
114 53  1  0
115 53  1  0
116 54  1  0
117 61  1  0
118 61  1  0
119 62  1  0
120 62  1  0
121 63  1  0
M  END
$$$$
