
     RDKit          3D

121127  0  0  0  0  0  0  0  0999 V2000
   -3.4880   14.3180    0.7510 O   0  0  0  0  0  0  0  0  0  0  0  0
   -3.8520   14.0740   -0.3800 C   0  0  1  0  0  0  0  0  0  0  0  0
   -4.0280   12.6510   -0.9310 C   0  0  1  0  0  0  0  0  0  0  0  0
   -4.2400   11.6390    0.1310 N   0  0  0  0  0  0  0  0  0  0  0  0
   -5.2470   11.7650    1.0510 C   0  0  0  0  0  0  0  0  0  0  0  0
   -5.1190   10.6200    1.9650 C   0  0  1  0  0  0  0  0  0  0  0  0
   -5.9170   10.3090    3.0900 C   0  0  2  0  0  0  0  0  0  0  0  0
   -5.6720    9.0610    3.6650 C   0  0  1  0  0  0  0  0  0  0  0  0
   -4.5970    8.2360    3.2640 C   0  0  1  0  0  0  0  0  0  0  0  0
   -3.7540    8.5860    2.1740 C   0  0  2  0  0  0  0  0  0  0  0  0
   -2.6160    7.9680    1.8460 N   0  0  0  0  0  0  0  0  0  0  0  0
   -1.9610    6.9070    2.6580 C   0  0  0  0  0  0  0  0  0  0  0  0
   -0.5380    6.7590    2.1380 C   0  0  0  0  0  0  0  0  0  0  0  0
   -0.6110    5.9580    0.9190 O   0  0  0  0  0  0  0  0  0  0  0  0
    0.5790    5.8330    0.1470 C   0  0  0  0  0  0  0  0  0  0  0  0
    1.5150    4.8470    0.7530 C   0  0  0  0  0  0  0  0  0  0  0  0
    2.1360    5.3520    1.9860 O   0  0  0  0  0  0  0  0  0  0  0  0
    2.6450    4.5130    3.0460 C   0  0  0  0  0  0  0  0  0  0  0  0
    3.5870    3.3260    2.5420 C   0  0  0  0  0  0  0  0  0  0  0  0
    2.7600    2.2310    1.9220 O   0  0  0  0  0  0  0  0  0  0  0  0
    3.3220    1.5790    0.7430 C   0  0  0  0  0  0  0  0  0  0  0  0
    2.4270    0.3810    0.3280 C   0  0  0  0  0  0  0  0  0  0  0  0
    3.0900   -0.2920   -0.8810 C   0  0  0  0  0  0  0  0  0  0  0  0
    2.6260   -1.5200   -1.3190 N   0  0  0  0  0  0  0  0  0  0  0  0
    1.3520   -2.1440   -0.9830 C   0  0  0  0  0  0  0  0  0  0  0  0
    1.4940   -3.3740   -0.1490 C   0  0  0  0  0  0  0  0  0  0  0  0
    3.5180   -2.4450   -2.0990 C   0  0  0  0  0  0  0  0  0  0  0  0
    3.6930   -3.7680   -1.3960 C   0  0  0  0  0  0  0  0  0  0  0  0
    2.4840   -4.3550   -0.7820 N   0  0  0  0  0  0  0  0  0  0  0  0
    2.2290   -5.7160   -0.8470 C   0  0  0  0  0  0  0  0  0  0  0  0
    0.9910   -6.1230   -1.4260 C   0  0  2  0  0  0  0  0  0  0  0  0
    0.6540   -7.5160   -1.4460 C   0  0  2  0  0  0  0  0  0  0  0  0
    3.1480   -6.6830   -0.4060 C   0  0  1  0  0  0  0  0  0  0  0  0
    2.8050   -8.0560   -0.4570 C   0  0  1  0  0  0  0  0  0  0  0  0
    1.6030   -8.4850   -1.0130 C   0  0  1  0  0  0  0  0  0  0  0  0
    1.2720   -9.9130   -1.0330 C   0  0  1  0  0  0  0  0  0  0  0  0
    0.8130  -10.4390   -2.1230 N   0  0  0  0  0  0  0  0  0  0  0  0
    1.7240  -10.9620   -3.1160 N   0  0  0  0  0  0  0  0  0  0  0  0
    1.5720  -10.7010   -4.4860 C   0  0  1  0  0  0  0  0  0  0  0  0
    0.5840   -9.7950   -4.7180 N   0  0  0  0  0  0  0  0  0  0  0  0
    0.3160   -9.0920   -5.8980 C   0  0  0  0  0  0  0  0  0  0  0  0
    2.3550  -11.0640   -5.3600 O   0  0  0  0  0  0  0  0  0  0  0  0
    2.6750  -11.9570   -2.6450 C   0  0  1  0  0  0  0  0  0  0  0  0
    4.0700  -11.3700   -2.3130 C   0  0  0  0  0  0  0  0  0  0  0  0
    2.1120  -12.8680   -1.4490 C   0  0  0  0  0  0  0  0  0  0  0  0
    2.1420  -12.1810   -0.0580 C   0  0  2  0  0  0  0  0  0  0  0  0
    2.4290  -12.9730    1.0160 C   0  0  0  0  0  0  0  0  0  0  0  0
    2.5440  -12.3950    2.3410 C   0  0  0  0  0  0  0  0  0  0  0  0
    3.0040  -13.2130    3.4100 O   0  0  0  0  0  0  0  0  0  0  0  0
    3.0270  -14.6500    3.4750 C   0  0  0  0  0  0  0  0  0  0  0  0
    2.1500  -11.0260    2.5270 C   0  0  2  0  0  0  0  0  0  0  0  0
    2.1300  -10.5800    3.8350 O   0  0  0  0  0  0  0  0  0  0  0  0
    1.4740   -9.3460    4.2290 C   0  0  0  0  0  0  0  0  0  0  0  0
    1.6730  -10.3290    1.4490 C   0  0  0  0  0  0  0  0  0  0  0  0
    1.6510  -10.8300    0.1400 C   0  0  1  0  0  0  0  0  0  0  0  0
    4.0230    0.2500   -1.4820 O   0  0  0  0  0  0  0  0  0  0  0  0
   -4.1090    9.7670    1.5050 C   0  0  0  0  0  0  0  0  0  0  0  0
   -3.5840   10.4020    0.2820 C   0  0  2  0  0  0  0  0  0  0  0  0
   -2.6340   10.0200   -0.3920 O   0  0  0  0  0  0  0  0  0  0  0  0
   -6.0740   12.6070    1.1410 O   0  0  0  0  0  0  0  0  0  0  0  0
   -5.1700   12.5390   -2.0160 C   0  0  0  0  0  0  0  0  0  0  0  0
   -5.3810   13.7240   -2.9990 C   0  0  0  0  0  0  0  0  0  0  0  0
   -4.5460   15.0340   -1.0310 N   0  0  0  0  0  0  0  0  0  0  0  0
   -5.3140   15.0680   -2.1990 C   0  0  2  0  0  0  0  0  0  0  0  0
   -6.0880   15.9250   -2.4490 O   0  0  0  0  0  0  0  0  0  0  0  0
   -3.0270   12.4510   -1.3330 H   0  0  0  0  0  0  0  0  0  0  0  0
   -6.7680   10.9390    3.3280 H   0  0  0  0  0  0  0  0  0  0  0  0
   -6.1870    8.9470    4.6140 H   0  0  0  0  0  0  0  0  0  0  0  0
   -4.4420    7.3690    3.8990 H   0  0  0  0  0  0  0  0  0  0  0  0
   -2.0280    8.3640    1.1240 H   0  0  0  0  0  0  0  0  0  0  0  0
   -1.9700    7.0940    3.7390 H   0  0  0  0  0  0  0  0  0  0  0  0
   -2.3930    5.9120    2.4980 H   0  0  0  0  0  0  0  0  0  0  0  0
   -0.1350    7.7700    2.0010 H   0  0  0  0  0  0  0  0  0  0  0  0
    0.1250    6.2160    2.8220 H   0  0  0  0  0  0  0  0  0  0  0  0
    0.3070    5.3750   -0.8120 H   0  0  0  0  0  0  0  0  0  0  0  0
    1.0430    6.8140   -0.0110 H   0  0  0  0  0  0  0  0  0  0  0  0
    0.9690    3.9320    1.0120 H   0  0  0  0  0  0  0  0  0  0  0  0
    2.2490    4.5420   -0.0030 H   0  0  0  0  0  0  0  0  0  0  0  0
    3.1510    5.1630    3.7710 H   0  0  0  0  0  0  0  0  0  0  0  0
    1.7940    4.1480    3.6340 H   0  0  0  0  0  0  0  0  0  0  0  0
    4.3410    3.7870    1.8910 H   0  0  0  0  0  0  0  0  0  0  0  0
    4.2160    2.9400    3.3540 H   0  0  0  0  0  0  0  0  0  0  0  0
    3.3450    2.2970   -0.0860 H   0  0  0  0  0  0  0  0  0  0  0  0
    4.3530    1.2290    0.8760 H   0  0  0  0  0  0  0  0  0  0  0  0
    2.2510   -0.3270    1.1480 H   0  0  0  0  0  0  0  0  0  0  0  0
    1.4000    0.6460    0.0470 H   0  0  0  0  0  0  0  0  0  0  0  0
    0.8560   -1.4980   -0.2480 H   0  0  0  0  0  0  0  0  0  0  0  0
    0.8080   -2.3240   -1.9190 H   0  0  0  0  0  0  0  0  0  0  0  0
    1.7350   -3.1840    0.9040 H   0  0  0  0  0  0  0  0  0  0  0  0
    0.5290   -3.8850   -0.0400 H   0  0  0  0  0  0  0  0  0  0  0  0
    3.0860   -2.7610   -3.0560 H   0  0  0  0  0  0  0  0  0  0  0  0
    4.4730   -1.9250   -2.2460 H   0  0  0  0  0  0  0  0  0  0  0  0
    4.1820   -4.5800   -1.9470 H   0  0  0  0  0  0  0  0  0  0  0  0
    4.4480   -3.5870   -0.6210 H   0  0  0  0  0  0  0  0  0  0  0  0
    0.3390   -5.4030   -1.9130 H   0  0  0  0  0  0  0  0  0  0  0  0
   -0.2790   -7.8590   -1.8830 H   0  0  0  0  0  0  0  0  0  0  0  0
    4.1390   -6.3300   -0.1380 H   0  0  0  0  0  0  0  0  0  0  0  0
    3.4430   -8.8780   -0.1450 H   0  0  0  0  0  0  0  0  0  0  0  0
   -0.0060   -9.7160   -3.8980 H   0  0  0  0  0  0  0  0  0  0  0  0
    0.5800   -9.6970   -6.7750 H   0  0  0  0  0  0  0  0  0  0  0  0
    0.9290   -8.1830   -5.9330 H   0  0  0  0  0  0  0  0  0  0  0  0
   -0.7500   -8.8390   -5.8510 H   0  0  0  0  0  0  0  0  0  0  0  0
    2.8830  -12.6230   -3.4900 H   0  0  0  0  0  0  0  0  0  0  0  0
    4.8370  -12.1430   -2.4430 H   0  0  0  0  0  0  0  0  0  0  0  0
    4.2750  -11.0960   -1.2700 H   0  0  0  0  0  0  0  0  0  0  0  0
    4.3140  -10.4590   -2.8750 H   0  0  0  0  0  0  0  0  0  0  0  0
    1.0940  -13.1710   -1.7210 H   0  0  0  0  0  0  0  0  0  0  0  0
    2.7800  -13.7380   -1.4700 H   0  0  0  0  0  0  0  0  0  0  0  0
    2.9510  -13.9190    0.9090 H   0  0  0  0  0  0  0  0  0  0  0  0
    3.2720  -15.0660    4.4600 H   0  0  0  0  0  0  0  0  0  0  0  0
    3.7670  -15.0280    2.7590 H   0  0  0  0  0  0  0  0  0  0  0  0
    2.0970  -15.1740    3.2230 H   0  0  0  0  0  0  0  0  0  0  0  0
    1.6330   -9.0580    5.2760 H   0  0  0  0  0  0  0  0  0  0  0  0
    0.3830   -9.4350    4.1660 H   0  0  0  0  0  0  0  0  0  0  0  0
    1.8120   -8.4830    3.6430 H   0  0  0  0  0  0  0  0  0  0  0  0
    1.2950   -9.3440    1.7080 H   0  0  0  0  0  0  0  0  0  0  0  0
   -5.0030   11.6660   -2.6590 H   0  0  0  0  0  0  0  0  0  0  0  0
   -6.1320   12.3240   -1.5340 H   0  0  0  0  0  0  0  0  0  0  0  0
   -4.6550   13.7090   -3.8210 H   0  0  0  0  0  0  0  0  0  0  0  0
   -6.4100   13.7380   -3.3800 H   0  0  0  0  0  0  0  0  0  0  0  0
   -4.6600   15.8260   -0.4090 H   0  0  0  0  0  0  0  0  0  0  0  0
  2  1  1  1
  3  2  1  0
  4  3  1  0
  5  4  1  0
  6  5  1  6
  7  6  1  0
  8  7  1  0
  9  8  1  0
 10  9  1  0
 10 11  1  1
 12 11  1  0
 13 12  1  0
 14 13  1  0
 15 14  1  0
 16 15  1  0
 17 16  1  0
 18 17  1  0
 19 18  1  0
 20 19  1  0
 21 20  1  0
 22 21  1  0
 23 22  1  0
 24 23  1  0
 25 24  1  0
 26 25  1  0
 27 24  1  0
 28 27  1  0
 29 28  1  0
 29 26  1  0
 30 29  1  0
 31 30  1  0
 32 31  1  0
 33 30  1  0
 34 33  1  0
 35 34  1  0
 35 32  1  0
 35 36  1  1
 36 37  1  6
 38 37  1  0
 39 38  1  0
 40 39  1  0
 41 40  1  0
 39 42  1  1
 43 38  1  0
 44 43  1  0
 45 43  1  0
 46 45  1  0
 46 47  1  1
 48 47  1  0
 49 48  1  0
 50 49  1  0
 51 48  1  0
 51 52  1  1
 53 52  1  0
 54 51  1  0
 55 46  1  0
 55 54  1  6
 55 36  1  0
 56 23  1  0
 57 10  1  0
 57  6  1  0
 58 57  1  0
 58  4  1  0
 58 59  1  1
 60  5  1  0
 61  3  1  0
 62 61  1  0
 63  2  1  0
 64 63  1  0
 64 62  1  0
 64 65  1  1
  3 66  1  6
  7 67  1  6
  8 68  1  1
  9 69  1  1
 70 11  1  0
 71 12  1  0
 72 12  1  0
 73 13  1  0
 74 13  1  0
 75 15  1  0
 76 15  1  0
 77 16  1  0
 78 16  1  0
 79 18  1  0
 80 18  1  0
 81 19  1  0
 82 19  1  0
 83 21  1  0
 84 21  1  0
 85 22  1  0
 86 22  1  0
 87 25  1  0
 88 25  1  0
 89 26  1  0
 90 26  1  0
 91 27  1  0
 92 27  1  0
 93 28  1  0
 94 28  1  0
 31 95  1  6
 32 96  1  6
 33 97  1  6
 34 98  1  6
 99 40  1  0
100 41  1  0
101 41  1  0
102 41  1  0
 43103  1  6
104 44  1  0
105 44  1  0
106 44  1  0
107 45  1  0
108 45  1  0
109 47  1  0
110 50  1  0
111 50  1  0
112 50  1  0
113 53  1  0
114 53  1  0
115 53  1  0
116 54  1  0
117 61  1  0
118 61  1  0
119 62  1  0
120 62  1  0
121 63  1  0
M  END
$$$$
