
     RDKit          3D

121127  0  0  0  0  0  0  0  0999 V2000
   -3.5140   14.3560    2.7770 O   0  0  0  0  0  0  0  0  0  0  0  0
   -3.6780   14.1710    1.5530 C   0  0  1  0  0  0  0  0  0  0  0  0
   -3.8760   12.7620    0.9550 C   0  0  1  0  0  0  0  0  0  0  0  0
   -4.1800   11.8220    2.0740 N   0  0  0  0  0  0  0  0  0  0  0  0
   -5.3360   11.8830    2.9130 C   0  0  2  0  0  0  0  0  0  0  0  0
   -5.2930   10.8180    3.8530 C   0  0  2  0  0  0  0  0  0  0  0  0
   -6.0640   10.6380    5.0290 C   0  0  1  0  0  0  0  0  0  0  0  0
   -5.6630    9.5380    5.8760 C   0  0  2  0  0  0  0  0  0  0  0  0
   -4.5810    8.7470    5.5300 C   0  0  1  0  0  0  0  0  0  0  0  0
   -3.8010    9.0040    4.4170 C   0  0  2  0  0  0  0  0  0  0  0  0
   -2.6310    8.3180    4.1660 N   0  0  0  0  0  0  0  0  0  0  0  0
   -2.2530    7.0560    4.6810 C   0  0  0  0  0  0  0  0  0  0  0  0
   -0.8070    6.6880    4.3440 C   0  0  0  0  0  0  0  0  0  0  0  0
   -0.7020    6.6060    2.9300 O   0  0  0  0  0  0  0  0  0  0  0  0
    0.6170    6.1960    2.5820 C   0  0  0  0  0  0  0  0  0  0  0  0
    0.7240    4.6860    2.4810 C   0  0  0  0  0  0  0  0  0  0  0  0
    1.4820    4.1500    3.6800 O   0  0  0  0  0  0  0  0  0  0  0  0
    1.3330    2.7540    3.8250 C   0  0  0  0  0  0  0  0  0  0  0  0
    2.4630    1.9690    3.1030 C   0  0  0  0  0  0  0  0  0  0  0  0
    2.4320    2.2870    1.6520 O   0  0  0  0  0  0  0  0  0  0  0  0
    3.4020    1.6760    0.7960 C   0  0  0  0  0  0  0  0  0  0  0  0
    2.7910    0.3290    0.3860 C   0  0  0  0  0  0  0  0  0  0  0  0
    3.8740   -0.6950    0.0160 C   0  0  1  0  0  0  0  0  0  0  0  0
    3.4380   -1.9030   -0.4950 N   0  0  0  0  0  0  0  0  0  0  0  0
    2.2020   -2.5040   -0.0680 C   0  0  0  0  0  0  0  0  0  0  0  0
    2.0600   -4.0650   -0.1310 C   0  0  0  0  0  0  0  0  0  0  0  0
    4.0520   -2.5670   -1.6170 C   0  0  0  0  0  0  0  0  0  0  0  0
    4.1890   -4.0580   -1.3480 C   0  0  0  0  0  0  0  0  0  0  0  0
    2.8230   -4.6640   -1.2250 N   0  0  0  0  0  0  0  0  0  0  0  0
    2.5010   -5.8320   -1.8780 C   0  0  1  0  0  0  0  0  0  0  0  0
    1.2830   -5.9270   -2.5780 C   0  0  1  0  0  0  0  0  0  0  0  0
    0.8710   -7.2030   -3.0850 C   0  0  1  0  0  0  0  0  0  0  0  0
    3.4200   -6.9290   -1.9300 C   0  0  2  0  0  0  0  0  0  0  0  0
    3.0010   -8.1890   -2.3610 C   0  0  1  0  0  0  0  0  0  0  0  0
    1.7410   -8.3640   -2.9320 C   0  0  0  0  0  0  0  0  0  0  0  0
    1.3230   -9.7660   -3.3580 C   0  0  2  0  0  0  0  0  0  0  0  0
    0.9480   -9.9410   -4.5250 N   0  0  0  0  0  0  0  0  0  0  0  0
    1.7360  -10.5720   -5.4380 N   0  0  0  0  0  0  0  0  0  0  0  0
    2.3590   -9.8480   -6.5820 C   0  0  2  0  0  0  0  0  0  0  0  0
    1.7720   -8.6300   -6.7250 N   0  0  0  0  0  0  0  0  0  0  0  0
    2.1050   -7.8610   -7.8430 C   0  0  0  0  0  0  0  0  0  0  0  0
    3.1360  -10.3450   -7.3290 O   0  0  0  0  0  0  0  0  0  0  0  0
    2.0090  -11.9600   -5.0760 C   0  0  1  0  0  0  0  0  0  0  0  0
    3.4380  -12.1390   -4.5540 C   0  0  0  0  0  0  0  0  0  0  0  0
    0.9910  -12.6760   -4.1280 C   0  0  0  0  0  0  0  0  0  0  0  0
    1.1510  -12.1760   -2.6850 C   0  0  2  0  0  0  0  0  0  0  0  0
    1.0190  -13.0710   -1.6080 C   0  0  2  0  0  0  0  0  0  0  0  0
    1.1310  -12.6890   -0.2770 C   0  0  2  0  0  0  0  0  0  0  0  0
    0.9860  -13.5780    0.7900 O   0  0  0  0  0  0  0  0  0  0  0  0
    1.0920  -15.0060    0.6160 C   0  0  0  0  0  0  0  0  0  0  0  0
    1.2880  -11.3210    0.0990 C   0  0  1  0  0  0  0  0  0  0  0  0
    1.5190  -10.9600    1.4000 O   0  0  0  0  0  0  0  0  0  0  0  0
    1.9080   -9.6390    1.7750 C   0  0  0  0  0  0  0  0  0  0  0  0
    1.2490  -10.4370   -0.9560 C   0  0  2  0  0  0  0  0  0  0  0  0
    1.2120  -10.7800   -2.3330 C   0  0  1  0  0  0  0  0  0  0  0  0
    5.0340   -0.4490   -0.0120 O   0  0  0  0  0  0  0  0  0  0  0  0
   -4.1710   10.0940    3.5580 C   0  0  2  0  0  0  0  0  0  0  0  0
   -3.4030   10.7790    2.4620 C   0  0  1  0  0  0  0  0  0  0  0  0
   -2.3260   10.4360    1.9330 O   0  0  0  0  0  0  0  0  0  0  0  0
   -6.2590   12.6850    2.7970 O   0  0  0  0  0  0  0  0  0  0  0  0
   -4.8920   12.6380   -0.2470 C   0  0  0  0  0  0  0  0  0  0  0  0
   -4.4260   13.7360   -1.2750 C   0  0  0  0  0  0  0  0  0  0  0  0
   -3.8840   15.1570    0.6360 N   0  0  0  0  0  0  0  0  0  0  0  0
   -4.2400   15.1230   -0.6070 C   0  0  0  0  0  0  0  0  0  0  0  0
   -4.4480   16.1070   -1.2440 O   0  0  0  0  0  0  0  0  0  0  0  0
   -2.9560   12.4390    0.4520 H   0  0  0  0  0  0  0  0  0  0  0  0
   -6.8310   11.3630    5.2860 H   0  0  0  0  0  0  0  0  0  0  0  0
   -6.3630    9.2470    6.6530 H   0  0  0  0  0  0  0  0  0  0  0  0
   -4.2360    7.9260    6.1520 H   0  0  0  0  0  0  0  0  0  0  0  0
   -2.1220    8.6820    3.3700 H   0  0  0  0  0  0  0  0  0  0  0  0
   -2.4960    7.0200    5.7510 H   0  0  0  0  0  0  0  0  0  0  0  0
   -2.9460    6.3380    4.2270 H   0  0  0  0  0  0  0  0  0  0  0  0
   -0.1510    7.5160    4.6390 H   0  0  0  0  0  0  0  0  0  0  0  0
   -0.5690    5.7300    4.8220 H   0  0  0  0  0  0  0  0  0  0  0  0
    0.8160    6.6950    1.6260 H   0  0  0  0  0  0  0  0  0  0  0  0
    1.3100    6.6760    3.2850 H   0  0  0  0  0  0  0  0  0  0  0  0
   -0.2940    4.2830    2.5490 H   0  0  0  0  0  0  0  0  0  0  0  0
    1.2350    4.3040    1.5880 H   0  0  0  0  0  0  0  0  0  0  0  0
    1.4830    2.5590    4.8940 H   0  0  0  0  0  0  0  0  0  0  0  0
    0.3240    2.3860    3.5990 H   0  0  0  0  0  0  0  0  0  0  0  0
    3.4840    2.1360    3.4670 H   0  0  0  0  0  0  0  0  0  0  0  0
    2.3120    0.9140    3.3630 H   0  0  0  0  0  0  0  0  0  0  0  0
    3.6930    2.2230   -0.1090 H   0  0  0  0  0  0  0  0  0  0  0  0
    4.2450    1.5510    1.4870 H   0  0  0  0  0  0  0  0  0  0  0  0
    2.2060   -0.0090    1.2510 H   0  0  0  0  0  0  0  0  0  0  0  0
    2.0910    0.3660   -0.4570 H   0  0  0  0  0  0  0  0  0  0  0  0
    1.9570   -2.1730    0.9480 H   0  0  0  0  0  0  0  0  0  0  0  0
    1.4030   -2.1380   -0.7260 H   0  0  0  0  0  0  0  0  0  0  0  0
    2.2370   -4.5600    0.8310 H   0  0  0  0  0  0  0  0  0  0  0  0
    1.0610   -4.2480   -0.5460 H   0  0  0  0  0  0  0  0  0  0  0  0
    3.4480   -2.3090   -2.4960 H   0  0  0  0  0  0  0  0  0  0  0  0
    5.0750   -2.1940   -1.7530 H   0  0  0  0  0  0  0  0  0  0  0  0
    4.6960   -4.4600   -2.2330 H   0  0  0  0  0  0  0  0  0  0  0  0
    4.8900   -4.2110   -0.5180 H   0  0  0  0  0  0  0  0  0  0  0  0
    0.6320   -5.0630   -2.6730 H   0  0  0  0  0  0  0  0  0  0  0  0
   -0.1830   -7.3320   -3.3150 H   0  0  0  0  0  0  0  0  0  0  0  0
    4.3790   -6.8730   -1.4230 H   0  0  0  0  0  0  0  0  0  0  0  0
    3.6090   -9.0900   -2.3610 H   0  0  0  0  0  0  0  0  0  0  0  0
    1.2340   -8.2930   -5.9350 H   0  0  0  0  0  0  0  0  0  0  0  0
    3.1290   -7.9930   -8.2120 H   0  0  0  0  0  0  0  0  0  0  0  0
    1.9280   -6.8080   -7.5940 H   0  0  0  0  0  0  0  0  0  0  0  0
    1.4480   -8.1010   -8.6880 H   0  0  0  0  0  0  0  0  0  0  0  0
    2.0030  -12.6040   -5.9630 H   0  0  0  0  0  0  0  0  0  0  0  0
    3.6670  -11.4770   -3.7100 H   0  0  0  0  0  0  0  0  0  0  0  0
    4.2010  -12.0690   -5.3390 H   0  0  0  0  0  0  0  0  0  0  0  0
    3.5250  -13.0990   -4.0290 H   0  0  0  0  0  0  0  0  0  0  0  0
   -0.0460  -12.6350   -4.4840 H   0  0  0  0  0  0  0  0  0  0  0  0
    1.1650  -13.7550   -4.2220 H   0  0  0  0  0  0  0  0  0  0  0  0
    1.0120  -14.1140   -1.9090 H   0  0  0  0  0  0  0  0  0  0  0  0
    0.6980  -15.4890    1.5190 H   0  0  0  0  0  0  0  0  0  0  0  0
    2.1500  -15.2050    0.4020 H   0  0  0  0  0  0  0  0  0  0  0  0
    0.3900  -15.3960   -0.1320 H   0  0  0  0  0  0  0  0  0  0  0  0
    1.1340   -8.9200    1.4780 H   0  0  0  0  0  0  0  0  0  0  0  0
    2.8730   -9.4040    1.3080 H   0  0  0  0  0  0  0  0  0  0  0  0
    1.9920   -9.6380    2.8690 H   0  0  0  0  0  0  0  0  0  0  0  0
    1.3630   -9.3920   -0.6820 H   0  0  0  0  0  0  0  0  0  0  0  0
   -4.8740   11.6270   -0.6710 H   0  0  0  0  0  0  0  0  0  0  0  0
   -5.9220   12.7910    0.0970 H   0  0  0  0  0  0  0  0  0  0  0  0
   -3.5350   13.4690   -1.8570 H   0  0  0  0  0  0  0  0  0  0  0  0
   -5.1830   13.8050   -2.0660 H   0  0  0  0  0  0  0  0  0  0  0  0
   -3.5920   16.0350    1.0490 H   0  0  0  0  0  0  0  0  0  0  0  0
  2  1  1  1
  3  2  1  0
  4  3  1  0
  5  4  1  0
  6  5  1  1
  7  6  1  0
  8  7  1  0
  9  8  1  0
 10  9  1  0
 10 11  1  1
 12 11  1  0
 13 12  1  0
 14 13  1  0
 15 14  1  0
 16 15  1  0
 17 16  1  0
 18 17  1  0
 19 18  1  0
 20 19  1  0
 21 20  1  0
 22 21  1  0
 23 22  1  0
 24 23  1  0
 25 24  1  0
 26 25  1  0
 27 24  1  0
 28 27  1  0
 29 28  1  0
 29 26  1  0
 30 29  1  6
 31 30  1  0
 32 31  1  0
 33 30  1  0
 34 33  1  0
 35 34  1  0
 35 32  1  0
 36 35  1  1
 37 36  1  0
 38 37  1  0
 39 38  1  0
 40 39  1  0
 41 40  1  0
 39 42  1  6
 43 38  1  0
 44 43  1  0
 45 43  1  0
 46 45  1  6
 47 46  1  0
 48 47  1  0
 48 49  1  1
 50 49  1  0
 51 48  1  0
 51 52  1  6
 53 52  1  0
 54 51  1  0
 55 46  1  0
 55 54  1  0
 55 36  1  6
 23 56  1  6
 57 10  1  0
 57  6  1  0
 57 58  1  1
 58  4  1  0
 58 59  1  6
  5 60  1  6
 61  3  1  0
 62 61  1  0
 63  2  1  0
 64 63  1  0
 64 62  1  0
 65 64  1  0
  3 66  1  6
  7 67  1  1
  8 68  1  6
  9 69  1  1
 70 11  1  0
 71 12  1  0
 72 12  1  0
 73 13  1  0
 74 13  1  0
 75 15  1  0
 76 15  1  0
 77 16  1  0
 78 16  1  0
 79 18  1  0
 80 18  1  0
 81 19  1  0
 82 19  1  0
 83 21  1  0
 84 21  1  0
 85 22  1  0
 86 22  1  0
 87 25  1  0
 88 25  1  0
 89 26  1  0
 90 26  1  0
 91 27  1  0
 92 27  1  0
 93 28  1  0
 94 28  1  0
 31 95  1  1
 32 96  1  1
 33 97  1  1
 34 98  1  6
 99 40  1  0
100 41  1  0
101 41  1  0
102 41  1  0
 43103  1  6
104 44  1  0
105 44  1  0
106 44  1  0
107 45  1  0
108 45  1  0
 47109  1  6
110 50  1  0
111 50  1  0
112 50  1  0
113 53  1  0
114 53  1  0
115 53  1  0
 54116  1  6
117 61  1  0
118 61  1  0
119 62  1  0
120 62  1  0
121 63  1  0
M  END
$$$$
