
     RDKit          3D

121127  0  0  0  0  0  0  0  0999 V2000
   -3.5140   14.3560    2.7770 O   0  0  0  0  0  0  0  0  0  0  0  0
   -3.6780   14.1710    1.5530 C   0  0  1  0  0  0  0  0  0  0  0  0
   -3.8760   12.7620    0.9550 C   0  0  1  0  0  0  0  0  0  0  0  0
   -4.1800   11.8220    2.0740 N   0  0  0  0  0  0  0  0  0  0  0  0
   -5.3360   11.8830    2.9130 C   0  0  2  0  0  0  0  0  0  0  0  0
   -5.2930   10.8180    3.8530 C   0  0  2  0  0  0  0  0  0  0  0  0
   -6.0640   10.6380    5.0290 C   0  0  1  0  0  0  0  0  0  0  0  0
   -5.6630    9.5380    5.8760 C   0  0  2  0  0  0  0  0  0  0  0  0
   -4.5810    8.7470    5.5300 C   0  0  1  0  0  0  0  0  0  0  0  0
   -3.8010    9.0040    4.4170 C   0  0  2  0  0  0  0  0  0  0  0  0
   -2.6310    8.3180    4.1660 N   0  0  0  0  0  0  0  0  0  0  0  0
   -2.2530    7.0560    4.6810 C   0  0  0  0  0  0  0  0  0  0  0  0
   -0.8070    6.6880    4.3440 C   0  0  0  0  0  0  0  0  0  0  0  0
   -0.7020    6.6060    2.9300 O   0  0  0  0  0  0  0  0  0  0  0  0
    0.6170    6.1960    2.5820 C   0  0  0  0  0  0  0  0  0  0  0  0
    0.7240    4.6860    2.4810 C   0  0  0  0  0  0  0  0  0  0  0  0
    1.4820    4.1500    3.6800 O   0  0  0  0  0  0  0  0  0  0  0  0
    1.3330    2.7540    3.8250 C   0  0  0  0  0  0  0  0  0  0  0  0
    2.4630    1.9690    3.1030 C   0  0  0  0  0  0  0  0  0  0  0  0
    2.4320    2.2870    1.6520 O   0  0  0  0  0  0  0  0  0  0  0  0
    3.4020    1.6760    0.7960 C   0  0  0  0  0  0  0  0  0  0  0  0
    2.7910    0.3290    0.3860 C   0  0  0  0  0  0  0  0  0  0  0  0
    3.8740   -0.6950    0.0160 C   0  0  1  0  0  0  0  0  0  0  0  0
    3.4380   -1.9030   -0.4950 N   0  0  0  0  0  0  0  0  0  0  0  0
    2.2020   -2.5040   -0.0680 C   0  0  0  0  0  0  0  0  0  0  0  0
    2.0600   -4.0650   -0.1310 C   0  0  0  0  0  0  0  0  0  0  0  0
    4.0520   -2.5670   -1.6170 C   0  0  0  0  0  0  0  0  0  0  0  0
    4.1890   -4.0580   -1.3480 C   0  0  0  0  0  0  0  0  0  0  0  0
    2.8230   -4.6640   -1.2250 N   0  0  0  0  0  0  0  0  0  0  0  0
    2.5010   -5.8320   -1.8780 C   0  0  1  0  0  0  0  0  0  0  0  0
    1.2830   -5.9270   -2.5780 C   0  0  1  0  0  0  0  0  0  0  0  0
    0.8710   -7.2030   -3.0850 C   0  0  1  0  0  0  0  0  0  0  0  0
    3.4200   -6.9290   -1.9300 C   0  0  2  0  0  0  0  0  0  0  0  0
    3.0010   -8.1890   -2.3610 C   0  0  1  0  0  0  0  0  0  0  0  0
    1.7410   -8.3640   -2.9320 C   0  0  0  0  0  0  0  0  0  0  0  0
    1.3230   -9.7660   -3.3580 C   0  0  2  0  0  0  0  0  0  0  0  0
    0.9480   -9.9410   -4.5250 N   0  0  0  0  0  0  0  0  0  0  0  0
    1.7360  -10.5720   -5.4380 N   0  0  0  0  0  0  0  0  0  0  0  0
    2.3590   -9.8480   -6.5820 C   0  0  2  0  0  0  0  0  0  0  0  0
    1.7720   -8.6300   -6.7250 N   0  0  0  0  0  0  0  0  0  0  0  0
    2.1050   -7.8610   -7.8430 C   0  0  0  0  0  0  0  0  0  0  0  0
    3.1360  -10.3450   -7.3290 O   0  0  0  0  0  0  0  0  0  0  0  0
    2.0090  -11.9600   -5.0760 C   0  0  1  0  0  0  0  0  0  0  0  0
    3.4380  -12.1390   -4.5540 C   0  0  0  0  0  0  0  0  0  0  0  0
    0.9910  -12.6760   -4.1280 C   0  0  0  0  0  0  0  0  0  0  0  0
    1.1510  -12.1760   -2.6850 C   0  0  2  0  0  0  0  0  0  0  0  0
    1.0190  -13.0710   -1.6080 C   0  0  2  0  0  0  0  0  0  0  0  0
    1.1310  -12.6890   -0.2770 C   0  0  2  0  0  0  0  0  0  0  0  0
    0.9860  -13.5780    0.7900 O   0  0  0  0  0  0  0  0  0  0  0  0
    1.0920  -15.0060    0.6160 C   0  0  0  0  0  0  0  0  0  0  0  0
    1.2880  -11.3210    0.0990 C   0  0  1  0  0  0  0  0  0  0  0  0
    1.5190  -10.9600    1.4000 O   0  0  0  0  0  0  0  0  0  0  0  0
    1.9080   -9.6390    1.7750 C   0  0  0  0  0  0  0  0  0  0  0  0
    1.2490  -10.4370   -0.9560 C   0  0  2  0  0  0  0  0  0  0  0  0
    1.2120  -10.7800   -2.3330 C   0  0  1  0  0  0  0  0  0  0  0  0
    5.0340   -0.4490   -0.0120 O   0  0  0  0  0  0  0  0  0  0  0  0
   -4.1710   10.0940    3.5580 C   0  0  2  0  0  0  0  0  0  0  0  0
   -3.4030   10.7790    2.4620 C   0  0  1  0  0  0  0  0  0  0  0  0
   -2.3260   10.4360    1.9330 O   0  0  0  0  0  0  0  0  0  0  0  0
   -6.2590   12.6850    2.7970 O   0  0  0  0  0  0  0  0  0  0  0  0
   -4.8920   12.6380   -0.2470 C   0  0  0  0  0  0  0  0  0  0  0  0
   -4.4260   13.7360   -1.2750 C   0  0  0  0  0  0  0  0  0  0  0  0
   -3.8840   15.1570    0.6360 N   0  0  0  0  0  0  0  0  0  0  0  0
   -4.2400   15.1230   -0.6070 C   0  0  0  0  0  0  0  0  0  0  0  0
   -4.4480   16.1070   -1.2440 O   0  0  0  0  0  0  0  0  0  0  0  0
   -2.9560   12.4390    0.4520 H   0  0  0  0  0  0  0  0  0  0  0  0
   -6.8310   11.3630    5.2860 H   0  0  0  0  0  0  0  0  0  0  0  0
   -6.3630    9.2470    6.6530 H   0  0  0  0  0  0  0  0  0  0  0  0
   -4.2360    7.9260    6.1520 H   0  0  0  0  0  0  0  0  0  0  0  0
   -2.1220    8.6820    3.3700 H   0  0  0  0  0  0  0  0  0  0  0  0
   -2.4960    7.0200    5.7510 H   0  0  0  0  0  0  0  0  0  0  0  0
   -2.9460    6.3380    4.2270 H   0  0  0  0  0  0  0  0  0  0  0  0
   -0.1510    7.5160    4.6390 H   0  0  0  0  0  0  0  0  0  0  0  0
   -0.5690    5.7300    4.8220 H   0  0  0  0  0  0  0  0  0  0  0  0
    0.8160    6.6950    1.6260 H   0  0  0  0  0  0  0  0  0  0  0  0
    1.3100    6.6760    3.2850 H   0  0  0  0  0  0  0  0  0  0  0  0
   -0.2940    4.2830    2.5490 H   0  0  0  0  0  0  0  0  0  0  0  0
    1.2350    4.3040    1.5880 H   0  0  0  0  0  0  0  0  0  0  0  0
    1.4830    2.5590    4.8940 H   0  0  0  0  0  0  0  0  0  0  0  0
    0.3240    2.3860    3.5990 H   0  0  0  0  0  0  0  0  0  0  0  0
    3.4840    2.1360    3.4670 H   0  0  0  0  0  0  0  0  0  0  0  0
    2.3120    0.9140    3.3630 H   0  0  0  0  0  0  0  0  0  0  0  0
    3.6930    2.2230   -0.1090 H   0  0  0  0  0  0  0  0  0  0  0  0
    4.2450    1.5510    1.4870 H   0  0  0  0  0  0  0  0  0  0  0  0
    2.2060   -0.0090    1.2510 H   0  0  0  0  0  0  0  0  0  0  0  0
    2.0910    0.3660   -0.4570 H   0  0  0  0  0  0  0  0  0  0  0  0
    1.9570   -2.1730    0.9480 H   0  0  0  0  0  0  0  0  0  0  0  0
    1.4030   -2.1380   -0.7260 H   0  0  0  0  0  0  0  0  0  0  0  0
    2.2370   -4.5600    0.8310 H   0  0  0  0  0  0  0  0  0  0  0  0
    1.0610   -4.2480   -0.5460 H   0  0  0  0  0  0  0  0  0  0  0  0
    3.4480   -2.3090   -2.4960 H   0  0  0  0  0  0  0  0  0  0  0  0
    5.0750   -2.1940   -1.7530 H   0  0  0  0  0  0  0  0  0  0  0  0
    4.6960   -4.4600   -2.2330 H   0  0  0  0  0  0  0  0  0  0  0  0
    4.8900   -4.2110   -0.5180 H   0  0  0  0  0  0  0  0  0  0  0  0
    0.6320   -5.0630   -2.6730 H   0  0  0  0  0  0  0  0  0  0  0  0
   -0.1830   -7.3320   -3.3150 H   0  0  0  0  0  0  0  0  0  0  0  0
    4.3790   -6.8730   -1.4230 H   0  0  0  0  0  0  0  0  0  0  0  0
    3.6090   -9.0900   -2.3610 H   0  0  0  0  0  0  0  0  0  0  0  0
    1.2340   -8.2930   -5.9350 H   0  0  0  0  0  0  0  0  0  0  0  0
    3.1290   -7.9930   -8.2120 H   0  0  0  0  0  0  0  0  0  0  0  0
    1.9280   -6.8080   -7.5940 H   0  0  0  0  0  0  0  0  0  0  0  0
    1.4480   -8.1010   -8.6880 H   0  0  0  0  0  0  0  0  0  0  0  0
    2.0030  -12.6040   -5.9630 H   0  0  0  0  0  0  0  0  0  0  0  0
    3.6670  -11.4770   -3.7100 H   0  0  0  0  0  0  0  0  0  0  0  0
    4.2010  -12.0690   -5.3390 H   0  0  0  0  0  0  0  0  0  0  0  0
    3.5250  -13.0990   -4.0290 H   0  0  0  0  0  0  0  0  0  0  0  0
   -0.0460  -12.6350   -4.4840 H   0  0  0  0  0  0  0  0  0  0  0  0
    1.1650  -13.7550   -4.2220 H   0  0  0  0  0  0  0  0  0  0  0  0
    1.0120  -14.1140   -1.9090 H   0  0  0  0  0  0  0  0  0  0  0  0
    0.6980  -15.4890    1.5190 H   0  0  0  0  0  0  0  0  0  0  0  0
    2.1500  -15.2050    0.4020 H   0  0  0  0  0  0  0  0  0  0  0  0
    0.3900  -15.3960   -0.1320 H   0  0  0  0  0  0  0  0  0  0  0  0
    1.1340   -8.9200    1.4780 H   0  0  0  0  0  0  0  0  0  0  0  0
    2.8730   -9.4040    1.3080 H   0  0  0  0  0  0  0  0  0  0  0  0
    1.9920   -9.6380    2.8690 H   0  0  0  0  0  0  0  0  0  0  0  0
    1.3630   -9.3920   -0.6820 H   0  0  0  0  0  0  0  0  0  0  0  0
   -4.8740   11.6270   -0.6710 H   0  0  0  0  0  0  0  0  0  0  0  0
   -5.9220   12.7910    0.0970 H   0  0  0  0  0  0  0  0  0  0  0  0
   -3.5350   13.4690   -1.8570 H   0  0  0  0  0  0  0  0  0  0  0  0
   -5.1830   13.8050   -2.0660 H   0  0  0  0  0  0  0  0  0  0  0  0
   -3.5920   16.0350    1.0490 H   0  0  0  0  0  0  0  0  0  0  0  0
  2  1  1  1
  3  2  1  0
  4  3  1  0
  5  4  1  0
  6  5  1  1
  7  6  1  0
  8  7  1  0
  9  8  1  0
 10  9  1  0
 10 11  1  1
 12 11  1  0
 13 12  1  0
 14 13  1  0
 15 14  1  0
 16 15  1  0
 17 16  1  0
 18 17  1  0
 19 18  1  0
 20 19  1  0
 21 20  1  0
 22 21  1  0
 23 22  1  0
 24 23  1  0
 25 24  1  0
 26 25  1  0
 27 24  1  0
 28 27  1  0
 29 28  1  0
 29 26  1  0
 30 29  1  6
 31 30  1  0
 32 31  1  0
 33 30  1  0
 34 33  1  0
 35 34  1  0
 35 32  1  0
 36 35  1  1
 37 36  1  0
 38 37  1  0
 39 38  1  0
 40 39  1  0
 41 40  1  0
 39 42  1  6
 43 38  1  0
 44 43  1  0
 45 43  1  0
 46 45  1  6
 47 46  1  0
 48 47  1  0
 48 49  1  1
 50 49  1  0
 51 48  1  0
 51 52  1  6
 53 52  1  0
 54 51  1  0
 55 46  1  0
 55 54  1  0
 55 36  1  6
 23 56  1  6
 57 10  1  0
 57  6  1  0
 57 58  1  1
 58  4  1  0
 58 59  1  6
  5 60  1  6
 61  3  1  0
 62 61  1  0
 63  2  1  0
 64 63  1  0
 64 62  1  0
 65 64  1  0
  3 66  1  6
  7 67  1  1
  8 68  1  6
  9 69  1  1
 70 11  1  0
 71 12  1  0
 72 12  1  0
 73 13  1  0
 74 13  1  0
 75 15  1  0
 76 15  1  0
 77 16  1  0
 78 16  1  0
 79 18  1  0
 80 18  1  0
 81 19  1  0
 82 19  1  0
 83 21  1  0
 84 21  1  0
 85 22  1  0
 86 22  1  0
 87 25  1  0
 88 25  1  0
 89 26  1  0
 90 26  1  0
 91 27  1  0
 92 27  1  0
 93 28  1  0
 94 28  1  0
 31 95  1  1
 32 96  1  1
 33 97  1  1
 34 98  1  6
 99 40  1  0
100 41  1  0
101 41  1  0
102 41  1  0
 43103  1  6
104 44  1  0
105 44  1  0
106 44  1  0
107 45  1  0
108 45  1  0
 47109  1  6
110 50  1  0
111 50  1  0
112 50  1  0
113 53  1  0
114 53  1  0
115 53  1  0
 54116  1  6
117 61  1  0
118 61  1  0
119 62  1  0
120 62  1  0
121 63  1  0
M  END
$$$$

     RDKit          3D

121127  0  0  0  0  0  0  0  0999 V2000
   -3.0600   14.6020    0.8070 O   0  0  0  0  0  0  0  0  0  0  0  0
   -3.4680   13.9730   -0.1620 C   0  0  0  0  0  0  0  0  0  0  0  0
   -3.4410   12.3290   -0.1530 C   0  0  1  0  0  0  0  0  0  0  0  0
   -3.8210   11.6780    1.1440 N   0  0  0  0  0  0  0  0  0  0  0  0
   -4.6890   12.1720    2.0820 C   0  0  0  0  0  0  0  0  0  0  0  0
   -4.8450   11.0880    3.1420 C   0  0  2  0  0  0  0  0  0  0  0  0
   -5.5370   11.1260    4.3070 C   0  0  2  0  0  0  0  0  0  0  0  0
   -5.3740   10.0300    5.2080 C   0  0  0  0  0  0  0  0  0  0  0  0
   -4.3810    9.0100    4.8580 C   0  0  1  0  0  0  0  0  0  0  0  0
   -3.6120    9.1330    3.7010 C   0  0  1  0  0  0  0  0  0  0  0  0
   -2.7250    8.1740    3.2850 N   0  0  0  0  0  0  0  0  0  0  0  0
   -2.1770    7.1140    3.9960 C   0  0  0  0  0  0  0  0  0  0  0  0
   -0.8250    6.8130    3.3010 C   0  0  0  0  0  0  0  0  0  0  0  0
   -1.0930    6.3810    1.9490 O   0  0  0  0  0  0  0  0  0  0  0  0
    0.0060    5.6140    1.3240 C   0  0  0  0  0  0  0  0  0  0  0  0
   -0.0540    4.0930    1.7780 C   0  0  0  0  0  0  0  0  0  0  0  0
    0.7190    3.9980    3.0410 O   0  0  0  0  0  0  0  0  0  0  0  0
    1.1740    2.6640    3.3380 C   0  0  0  0  0  0  0  0  0  0  0  0
    2.3010    2.2850    2.3860 C   0  0  0  0  0  0  0  0  0  0  0  0
    1.8390    1.3540    1.4120 O   0  0  0  0  0  0  0  0  0  0  0  0
    2.7690    0.9410    0.3450 C   0  0  0  0  0  0  0  0  0  0  0  0
    1.9290    0.0170   -0.4510 C   0  0  0  0  0  0  0  0  0  0  0  0
    2.6440   -0.4440   -1.7380 C   0  0  0  0  0  0  0  0  0  0  0  0
    2.0020   -1.3620   -2.5350 N   0  0  0  0  0  0  0  0  0  0  0  0
    0.7590   -2.0400   -2.0950 C   0  0  0  0  0  0  0  0  0  0  0  0
    1.1480   -3.3310   -1.3240 C   0  0  0  0  0  0  0  0  0  0  0  0
    2.7420   -2.2000   -3.5250 C   0  0  0  0  0  0  0  0  0  0  0  0
    3.0070   -3.6400   -2.9660 C   0  0  0  0  0  0  0  0  0  0  0  0
    1.9280   -4.2420   -2.2190 N   0  0  0  0  0  0  0  0  0  0  0  0
    1.8570   -5.6100   -2.0420 C   0  0  0  0  0  0  0  0  0  0  0  0
    0.5520   -6.1860   -2.2430 C   0  0  2  0  0  0  0  0  0  0  0  0
    0.5030   -7.5870   -2.0810 C   0  0  1  0  0  0  0  0  0  0  0  0
    2.9740   -6.3410   -1.6630 C   0  0  2  0  0  0  0  0  0  0  0  0
    2.9190   -7.7560   -1.3470 C   0  0  1  0  0  0  0  0  0  0  0  0
    1.6490   -8.3510   -1.6070 C   0  0  2  0  0  0  0  0  0  0  0  0
    1.4440   -9.8270   -1.5140 C   0  0  1  0  0  0  0  0  0  0  0  0
    0.8250  -10.5220   -2.4570 N   0  0  0  0  0  0  0  0  0  0  0  0
    1.7200  -11.0960   -3.3300 N   0  0  0  0  0  0  0  0  0  0  0  0
    1.8540  -10.5260   -4.6570 C   0  0  2  0  0  0  0  0  0  0  0  0
    0.9390   -9.4720   -4.9040 N   0  0  0  0  0  0  0  0  0  0  0  0
    0.8430   -8.8070   -6.3220 C   0  0  0  0  0  0  0  0  0  0  0  0
    2.6350  -10.9580   -5.4850 O   0  0  0  0  0  0  0  0  0  0  0  0
    2.6680  -12.0780   -2.9400 C   0  0  1  0  0  0  0  0  0  0  0  0
    4.1120  -11.4710   -2.8820 C   0  0  0  0  0  0  0  0  0  0  0  0
    2.3060  -12.8060   -1.5640 C   0  0  0  0  0  0  0  0  0  0  0  0
    2.4460  -11.9320   -0.3260 C   0  0  0  0  0  0  0  0  0  0  0  0
    2.9170  -12.5280    0.8470 C   0  0  0  0  0  0  0  0  0  0  0  0
    3.0170  -11.8310    2.0450 C   0  0  2  0  0  0  0  0  0  0  0  0
    3.4600  -12.4990    3.2300 O   0  0  0  0  0  0  0  0  0  0  0  0
    3.3950  -13.9620    3.2860 C   0  0  0  0  0  0  0  0  0  0  0  0
    2.5680  -10.4560    2.0680 C   0  0  1  0  0  0  0  0  0  0  0  0
    2.6280   -9.7060    3.2130 O   0  0  0  0  0  0  0  0  0  0  0  0
    1.4670   -9.0880    3.7200 C   0  0  0  0  0  0  0  0  0  0  0  0
    2.2160   -9.8310    0.8590 C   0  0  0  0  0  0  0  0  0  0  0  0
    2.0930  -10.5320   -0.3390 C   0  0  2  0  0  0  0  0  0  0  0  0
    3.7810   -0.0480   -2.0300 O   0  0  0  0  0  0  0  0  0  0  0  0
   -3.8710   10.1710    2.9090 C   0  0  1  0  0  0  0  0  0  0  0  0
   -3.2730   10.4910    1.5880 C   0  0  1  0  0  0  0  0  0  0  0  0
   -2.6200    9.7330    0.9210 O   0  0  0  0  0  0  0  0  0  0  0  0
   -5.2170   13.2670    2.0360 O   0  0  0  0  0  0  0  0  0  0  0  0
   -4.4340   11.8480   -1.2820 C   0  0  0  0  0  0  0  0  0  0  0  0
   -4.3550   12.5040   -2.6300 C   0  0  0  0  0  0  0  0  0  0  0  0
   -3.9880   14.5740   -1.2610 N   0  0  0  0  0  0  0  0  0  0  0  0
   -4.4760   14.0100   -2.4390 C   0  0  0  0  0  0  0  0  0  0  0  0
   -4.9910   14.7820   -3.2530 O   0  0  0  0  0  0  0  0  0  0  0  0
   -2.4200   12.0900   -0.4740 H   0  0  0  0  0  0  0  0  0  0  0  0
   -6.2480   11.9270    4.4810 H   0  0  0  0  0  0  0  0  0  0  0  0
   -5.9970   10.0180    6.0980 H   0  0  0  0  0  0  0  0  0  0  0  0
   -4.1740    8.2270    5.5820 H   0  0  0  0  0  0  0  0  0  0  0  0
   -2.3320    8.3300    2.3660 H   0  0  0  0  0  0  0  0  0  0  0  0
   -1.8630    7.3810    5.0120 H   0  0  0  0  0  0  0  0  0  0  0  0
   -2.8920    6.2820    4.0090 H   0  0  0  0  0  0  0  0  0  0  0  0
   -0.1330    7.6560    3.1900 H   0  0  0  0  0  0  0  0  0  0  0  0
   -0.2470    6.0970    3.8980 H   0  0  0  0  0  0  0  0  0  0  0  0
   -0.1860    5.6840    0.2460 H   0  0  0  0  0  0  0  0  0  0  0  0
    0.9890    6.0040    1.6160 H   0  0  0  0  0  0  0  0  0  0  0  0
   -1.0610    3.6600    1.8340 H   0  0  0  0  0  0  0  0  0  0  0  0
    0.4420    3.4450    1.0450 H   0  0  0  0  0  0  0  0  0  0  0  0
    1.5080    2.5670    4.3790 H   0  0  0  0  0  0  0  0  0  0  0  0
    0.3460    1.9630    3.1770 H   0  0  0  0  0  0  0  0  0  0  0  0
    2.6000    3.1760    1.8220 H   0  0  0  0  0  0  0  0  0  0  0  0
    3.0880    1.8130    2.9880 H   0  0  0  0  0  0  0  0  0  0  0  0
    2.9960    1.7340   -0.3770 H   0  0  0  0  0  0  0  0  0  0  0  0
    3.6360    0.3770    0.7120 H   0  0  0  0  0  0  0  0  0  0  0  0
    1.7690   -0.8840    0.1550 H   0  0  0  0  0  0  0  0  0  0  0  0
    0.9620    0.4420   -0.7470 H   0  0  0  0  0  0  0  0  0  0  0  0
    0.1160   -1.3570   -1.5250 H   0  0  0  0  0  0  0  0  0  0  0  0
    0.2640   -2.4580   -2.9800 H   0  0  0  0  0  0  0  0  0  0  0  0
    1.7260   -3.0290   -0.4420 H   0  0  0  0  0  0  0  0  0  0  0  0
    0.1750   -3.7790   -1.0840 H   0  0  0  0  0  0  0  0  0  0  0  0
    2.1230   -2.4720   -4.3880 H   0  0  0  0  0  0  0  0  0  0  0  0
    3.6750   -1.7330   -3.8650 H   0  0  0  0  0  0  0  0  0  0  0  0
    3.1430   -4.2850   -3.8430 H   0  0  0  0  0  0  0  0  0  0  0  0
    3.8700   -3.6910   -2.2910 H   0  0  0  0  0  0  0  0  0  0  0  0
   -0.3450   -5.7060   -2.6230 H   0  0  0  0  0  0  0  0  0  0  0  0
   -0.4070   -8.1750   -2.1540 H   0  0  0  0  0  0  0  0  0  0  0  0
    3.8560   -5.7320   -1.4870 H   0  0  0  0  0  0  0  0  0  0  0  0
    3.7970   -8.3790   -1.2030 H   0  0  0  0  0  0  0  0  0  0  0  0
    0.4080   -9.0070   -4.1770 H   0  0  0  0  0  0  0  0  0  0  0  0
    1.6380   -8.0510   -6.3190 H   0  0  0  0  0  0  0  0  0  0  0  0
   -0.1310   -8.3050   -6.3760 H   0  0  0  0  0  0  0  0  0  0  0  0
    1.1110   -9.5040   -7.1260 H   0  0  0  0  0  0  0  0  0  0  0  0
    2.6600  -12.8450   -3.7250 H   0  0  0  0  0  0  0  0  0  0  0  0
    4.7070  -11.7700   -2.0100 H   0  0  0  0  0  0  0  0  0  0  0  0
    4.0980  -10.3950   -2.6690 H   0  0  0  0  0  0  0  0  0  0  0  0
    4.7850  -11.6830   -3.7230 H   0  0  0  0  0  0  0  0  0  0  0  0
    1.2460  -13.0890   -1.5900 H   0  0  0  0  0  0  0  0  0  0  0  0
    2.8990  -13.7120   -1.3880 H   0  0  0  0  0  0  0  0  0  0  0  0
    3.1920  -13.5740    0.7400 H   0  0  0  0  0  0  0  0  0  0  0  0
    3.6330  -14.3690    4.2770 H   0  0  0  0  0  0  0  0  0  0  0  0
    4.1120  -14.3510    2.5530 H   0  0  0  0  0  0  0  0  0  0  0  0
    2.4410  -14.4010    2.9700 H   0  0  0  0  0  0  0  0  0  0  0  0
    0.5830   -9.7370    3.6810 H   0  0  0  0  0  0  0  0  0  0  0  0
    1.0030   -8.4000    3.0020 H   0  0  0  0  0  0  0  0  0  0  0  0
    1.6050   -8.5470    4.6650 H   0  0  0  0  0  0  0  0  0  0  0  0
    1.9150   -8.7970    0.9950 H   0  0  0  0  0  0  0  0  0  0  0  0
   -4.2630   10.7870   -1.5010 H   0  0  0  0  0  0  0  0  0  0  0  0
   -5.4070   11.6030   -0.8370 H   0  0  0  0  0  0  0  0  0  0  0  0
   -3.3990   12.2610   -3.1090 H   0  0  0  0  0  0  0  0  0  0  0  0
   -5.2120   12.2010   -3.2430 H   0  0  0  0  0  0  0  0  0  0  0  0
   -3.8810   15.5810   -1.2590 H   0  0  0  0  0  0  0  0  0  0  0  0
  2  1  1  0
  3  2  1  0
  4  3  1  0
  5  4  1  0
  6  5  1  1
  7  6  1  0
  8  7  1  0
  9  8  1  0
 10  9  1  0
 10 11  1  6
 12 11  1  0
 13 12  1  0
 14 13  1  0
 15 14  1  0
 16 15  1  0
 17 16  1  0
 18 17  1  0
 19 18  1  0
 20 19  1  0
 21 20  1  0
 22 21  1  0
 23 22  1  0
 24 23  1  0
 25 24  1  0
 26 25  1  0
 27 24  1  0
 28 27  1  0
 29 28  1  0
 29 26  1  0
 30 29  1  0
 31 30  1  0
 32 31  1  0
 33 30  1  0
 34 33  1  0
 35 34  1  0
 35 32  1  0
 35 36  1  6
 36 37  1  6
 38 37  1  0
 39 38  1  0
 40 39  1  0
 41 40  1  0
 39 42  1  6
 43 38  1  0
 44 43  1  0
 45 43  1  0
 46 45  1  0
 47 46  1  0
 48 47  1  0
 48 49  1  1
 50 49  1  0
 51 48  1  0
 51 52  1  6
 53 52  1  0
 54 51  1  0
 55 46  1  0
 55 54  1  1
 55 36  1  0
 56 23  1  0
 57 10  1  0
 57  6  1  0
 57 58  1  6
 58  4  1  0
 58 59  1  6
 60  5  1  0
 61  3  1  0
 62 61  1  0
 63  2  1  0
 64 63  1  0
 64 62  1  0
 65 64  1  0
  3 66  1  6
  7 67  1  6
 68  8  1  0
  9 69  1  1
 70 11  1  0
 71 12  1  0
 72 12  1  0
 73 13  1  0
 74 13  1  0
 75 15  1  0
 76 15  1  0
 77 16  1  0
 78 16  1  0
 79 18  1  0
 80 18  1  0
 81 19  1  0
 82 19  1  0
 83 21  1  0
 84 21  1  0
 85 22  1  0
 86 22  1  0
 87 25  1  0
 88 25  1  0
 89 26  1  0
 90 26  1  0
 91 27  1  0
 92 27  1  0
 93 28  1  0
 94 28  1  0
 31 95  1  6
 32 96  1  1
 33 97  1  1
 34 98  1  6
 99 40  1  0
100 41  1  0
101 41  1  0
102 41  1  0
 43103  1  6
104 44  1  0
105 44  1  0
106 44  1  0
107 45  1  0
108 45  1  0
109 47  1  0
110 50  1  0
111 50  1  0
112 50  1  0
113 53  1  0
114 53  1  0
115 53  1  0
116 54  1  0
117 61  1  0
118 61  1  0
119 62  1  0
120 62  1  0
121 63  1  0
M  END
$$$$

     RDKit          3D

121127  0  0  0  0  0  0  0  0999 V2000
   -3.4880   14.3180    0.7510 O   0  0  0  0  0  0  0  0  0  0  0  0
   -3.8520   14.0740   -0.3800 C   0  0  1  0  0  0  0  0  0  0  0  0
   -4.0280   12.6510   -0.9310 C   0  0  1  0  0  0  0  0  0  0  0  0
   -4.2400   11.6390    0.1310 N   0  0  0  0  0  0  0  0  0  0  0  0
   -5.2470   11.7650    1.0510 C   0  0  0  0  0  0  0  0  0  0  0  0
   -5.1190   10.6200    1.9650 C   0  0  1  0  0  0  0  0  0  0  0  0
   -5.9170   10.3090    3.0900 C   0  0  2  0  0  0  0  0  0  0  0  0
   -5.6720    9.0610    3.6650 C   0  0  1  0  0  0  0  0  0  0  0  0
   -4.5970    8.2360    3.2640 C   0  0  1  0  0  0  0  0  0  0  0  0
   -3.7540    8.5860    2.1740 C   0  0  2  0  0  0  0  0  0  0  0  0
   -2.6160    7.9680    1.8460 N   0  0  0  0  0  0  0  0  0  0  0  0
   -1.9610    6.9070    2.6580 C   0  0  0  0  0  0  0  0  0  0  0  0
   -0.5380    6.7590    2.1380 C   0  0  0  0  0  0  0  0  0  0  0  0
   -0.6110    5.9580    0.9190 O   0  0  0  0  0  0  0  0  0  0  0  0
    0.5790    5.8330    0.1470 C   0  0  0  0  0  0  0  0  0  0  0  0
    1.5150    4.8470    0.7530 C   0  0  0  0  0  0  0  0  0  0  0  0
    2.1360    5.3520    1.9860 O   0  0  0  0  0  0  0  0  0  0  0  0
    2.6450    4.5130    3.0460 C   0  0  0  0  0  0  0  0  0  0  0  0
    3.5870    3.3260    2.5420 C   0  0  0  0  0  0  0  0  0  0  0  0
    2.7600    2.2310    1.9220 O   0  0  0  0  0  0  0  0  0  0  0  0
    3.3220    1.5790    0.7430 C   0  0  0  0  0  0  0  0  0  0  0  0
    2.4270    0.3810    0.3280 C   0  0  0  0  0  0  0  0  0  0  0  0
    3.0900   -0.2920   -0.8810 C   0  0  0  0  0  0  0  0  0  0  0  0
    2.6260   -1.5200   -1.3190 N   0  0  0  0  0  0  0  0  0  0  0  0
    1.3520   -2.1440   -0.9830 C   0  0  0  0  0  0  0  0  0  0  0  0
    1.4940   -3.3740   -0.1490 C   0  0  0  0  0  0  0  0  0  0  0  0
    3.5180   -2.4450   -2.0990 C   0  0  0  0  0  0  0  0  0  0  0  0
    3.6930   -3.7680   -1.3960 C   0  0  0  0  0  0  0  0  0  0  0  0
    2.4840   -4.3550   -0.7820 N   0  0  0  0  0  0  0  0  0  0  0  0
    2.2290   -5.7160   -0.8470 C   0  0  0  0  0  0  0  0  0  0  0  0
    0.9910   -6.1230   -1.4260 C   0  0  2  0  0  0  0  0  0  0  0  0
    0.6540   -7.5160   -1.4460 C   0  0  2  0  0  0  0  0  0  0  0  0
    3.1480   -6.6830   -0.4060 C   0  0  1  0  0  0  0  0  0  0  0  0
    2.8050   -8.0560   -0.4570 C   0  0  1  0  0  0  0  0  0  0  0  0
    1.6030   -8.4850   -1.0130 C   0  0  1  0  0  0  0  0  0  0  0  0
    1.2720   -9.9130   -1.0330 C   0  0  1  0  0  0  0  0  0  0  0  0
    0.8130  -10.4390   -2.1230 N   0  0  0  0  0  0  0  0  0  0  0  0
    1.7240  -10.9620   -3.1160 N   0  0  0  0  0  0  0  0  0  0  0  0
    1.5720  -10.7010   -4.4860 C   0  0  1  0  0  0  0  0  0  0  0  0
    0.5840   -9.7950   -4.7180 N   0  0  0  0  0  0  0  0  0  0  0  0
    0.3160   -9.0920   -5.8980 C   0  0  0  0  0  0  0  0  0  0  0  0
    2.3550  -11.0640   -5.3600 O   0  0  0  0  0  0  0  0  0  0  0  0
    2.6750  -11.9570   -2.6450 C   0  0  1  0  0  0  0  0  0  0  0  0
    4.0700  -11.3700   -2.3130 C   0  0  0  0  0  0  0  0  0  0  0  0
    2.1120  -12.8680   -1.4490 C   0  0  0  0  0  0  0  0  0  0  0  0
    2.1420  -12.1810   -0.0580 C   0  0  2  0  0  0  0  0  0  0  0  0
    2.4290  -12.9730    1.0160 C   0  0  0  0  0  0  0  0  0  0  0  0
    2.5440  -12.3950    2.3410 C   0  0  0  0  0  0  0  0  0  0  0  0
    3.0040  -13.2130    3.4100 O   0  0  0  0  0  0  0  0  0  0  0  0
    3.0270  -14.6500    3.4750 C   0  0  0  0  0  0  0  0  0  0  0  0
    2.1500  -11.0260    2.5270 C   0  0  2  0  0  0  0  0  0  0  0  0
    2.1300  -10.5800    3.8350 O   0  0  0  0  0  0  0  0  0  0  0  0
    1.4740   -9.3460    4.2290 C   0  0  0  0  0  0  0  0  0  0  0  0
    1.6730  -10.3290    1.4490 C   0  0  0  0  0  0  0  0  0  0  0  0
    1.6510  -10.8300    0.1400 C   0  0  1  0  0  0  0  0  0  0  0  0
    4.0230    0.2500   -1.4820 O   0  0  0  0  0  0  0  0  0  0  0  0
   -4.1090    9.7670    1.5050 C   0  0  0  0  0  0  0  0  0  0  0  0
   -3.5840   10.4020    0.2820 C   0  0  2  0  0  0  0  0  0  0  0  0
   -2.6340   10.0200   -0.3920 O   0  0  0  0  0  0  0  0  0  0  0  0
   -6.0740   12.6070    1.1410 O   0  0  0  0  0  0  0  0  0  0  0  0
   -5.1700   12.5390   -2.0160 C   0  0  0  0  0  0  0  0  0  0  0  0
   -5.3810   13.7240   -2.9990 C   0  0  0  0  0  0  0  0  0  0  0  0
   -4.5460   15.0340   -1.0310 N   0  0  0  0  0  0  0  0  0  0  0  0
   -5.3140   15.0680   -2.1990 C   0  0  2  0  0  0  0  0  0  0  0  0
   -6.0880   15.9250   -2.4490 O   0  0  0  0  0  0  0  0  0  0  0  0
   -3.0270   12.4510   -1.3330 H   0  0  0  0  0  0  0  0  0  0  0  0
   -6.7680   10.9390    3.3280 H   0  0  0  0  0  0  0  0  0  0  0  0
   -6.1870    8.9470    4.6140 H   0  0  0  0  0  0  0  0  0  0  0  0
   -4.4420    7.3690    3.8990 H   0  0  0  0  0  0  0  0  0  0  0  0
   -2.0280    8.3640    1.1240 H   0  0  0  0  0  0  0  0  0  0  0  0
   -1.9700    7.0940    3.7390 H   0  0  0  0  0  0  0  0  0  0  0  0
   -2.3930    5.9120    2.4980 H   0  0  0  0  0  0  0  0  0  0  0  0
   -0.1350    7.7700    2.0010 H   0  0  0  0  0  0  0  0  0  0  0  0
    0.1250    6.2160    2.8220 H   0  0  0  0  0  0  0  0  0  0  0  0
    0.3070    5.3750   -0.8120 H   0  0  0  0  0  0  0  0  0  0  0  0
    1.0430    6.8140   -0.0110 H   0  0  0  0  0  0  0  0  0  0  0  0
    0.9690    3.9320    1.0120 H   0  0  0  0  0  0  0  0  0  0  0  0
    2.2490    4.5420   -0.0030 H   0  0  0  0  0  0  0  0  0  0  0  0
    3.1510    5.1630    3.7710 H   0  0  0  0  0  0  0  0  0  0  0  0
    1.7940    4.1480    3.6340 H   0  0  0  0  0  0  0  0  0  0  0  0
    4.3410    3.7870    1.8910 H   0  0  0  0  0  0  0  0  0  0  0  0
    4.2160    2.9400    3.3540 H   0  0  0  0  0  0  0  0  0  0  0  0
    3.3450    2.2970   -0.0860 H   0  0  0  0  0  0  0  0  0  0  0  0
    4.3530    1.2290    0.8760 H   0  0  0  0  0  0  0  0  0  0  0  0
    2.2510   -0.3270    1.1480 H   0  0  0  0  0  0  0  0  0  0  0  0
    1.4000    0.6460    0.0470 H   0  0  0  0  0  0  0  0  0  0  0  0
    0.8560   -1.4980   -0.2480 H   0  0  0  0  0  0  0  0  0  0  0  0
    0.8080   -2.3240   -1.9190 H   0  0  0  0  0  0  0  0  0  0  0  0
    1.7350   -3.1840    0.9040 H   0  0  0  0  0  0  0  0  0  0  0  0
    0.5290   -3.8850   -0.0400 H   0  0  0  0  0  0  0  0  0  0  0  0
    3.0860   -2.7610   -3.0560 H   0  0  0  0  0  0  0  0  0  0  0  0
    4.4730   -1.9250   -2.2460 H   0  0  0  0  0  0  0  0  0  0  0  0
    4.1820   -4.5800   -1.9470 H   0  0  0  0  0  0  0  0  0  0  0  0
    4.4480   -3.5870   -0.6210 H   0  0  0  0  0  0  0  0  0  0  0  0
    0.3390   -5.4030   -1.9130 H   0  0  0  0  0  0  0  0  0  0  0  0
   -0.2790   -7.8590   -1.8830 H   0  0  0  0  0  0  0  0  0  0  0  0
    4.1390   -6.3300   -0.1380 H   0  0  0  0  0  0  0  0  0  0  0  0
    3.4430   -8.8780   -0.1450 H   0  0  0  0  0  0  0  0  0  0  0  0
   -0.0060   -9.7160   -3.8980 H   0  0  0  0  0  0  0  0  0  0  0  0
    0.5800   -9.6970   -6.7750 H   0  0  0  0  0  0  0  0  0  0  0  0
    0.9290   -8.1830   -5.9330 H   0  0  0  0  0  0  0  0  0  0  0  0
   -0.7500   -8.8390   -5.8510 H   0  0  0  0  0  0  0  0  0  0  0  0
    2.8830  -12.6230   -3.4900 H   0  0  0  0  0  0  0  0  0  0  0  0
    4.8370  -12.1430   -2.4430 H   0  0  0  0  0  0  0  0  0  0  0  0
    4.2750  -11.0960   -1.2700 H   0  0  0  0  0  0  0  0  0  0  0  0
    4.3140  -10.4590   -2.8750 H   0  0  0  0  0  0  0  0  0  0  0  0
    1.0940  -13.1710   -1.7210 H   0  0  0  0  0  0  0  0  0  0  0  0
    2.7800  -13.7380   -1.4700 H   0  0  0  0  0  0  0  0  0  0  0  0
    2.9510  -13.9190    0.9090 H   0  0  0  0  0  0  0  0  0  0  0  0
    3.2720  -15.0660    4.4600 H   0  0  0  0  0  0  0  0  0  0  0  0
    3.7670  -15.0280    2.7590 H   0  0  0  0  0  0  0  0  0  0  0  0
    2.0970  -15.1740    3.2230 H   0  0  0  0  0  0  0  0  0  0  0  0
    1.6330   -9.0580    5.2760 H   0  0  0  0  0  0  0  0  0  0  0  0
    0.3830   -9.4350    4.1660 H   0  0  0  0  0  0  0  0  0  0  0  0
    1.8120   -8.4830    3.6430 H   0  0  0  0  0  0  0  0  0  0  0  0
    1.2950   -9.3440    1.7080 H   0  0  0  0  0  0  0  0  0  0  0  0
   -5.0030   11.6660   -2.6590 H   0  0  0  0  0  0  0  0  0  0  0  0
   -6.1320   12.3240   -1.5340 H   0  0  0  0  0  0  0  0  0  0  0  0
   -4.6550   13.7090   -3.8210 H   0  0  0  0  0  0  0  0  0  0  0  0
   -6.4100   13.7380   -3.3800 H   0  0  0  0  0  0  0  0  0  0  0  0
   -4.6600   15.8260   -0.4090 H   0  0  0  0  0  0  0  0  0  0  0  0
  2  1  1  1
  3  2  1  0
  4  3  1  0
  5  4  1  0
  6  5  1  6
  7  6  1  0
  8  7  1  0
  9  8  1  0
 10  9  1  0
 10 11  1  1
 12 11  1  0
 13 12  1  0
 14 13  1  0
 15 14  1  0
 16 15  1  0
 17 16  1  0
 18 17  1  0
 19 18  1  0
 20 19  1  0
 21 20  1  0
 22 21  1  0
 23 22  1  0
 24 23  1  0
 25 24  1  0
 26 25  1  0
 27 24  1  0
 28 27  1  0
 29 28  1  0
 29 26  1  0
 30 29  1  0
 31 30  1  0
 32 31  1  0
 33 30  1  0
 34 33  1  0
 35 34  1  0
 35 32  1  0
 35 36  1  1
 36 37  1  6
 38 37  1  0
 39 38  1  0
 40 39  1  0
 41 40  1  0
 39 42  1  1
 43 38  1  0
 44 43  1  0
 45 43  1  0
 46 45  1  0
 46 47  1  1
 48 47  1  0
 49 48  1  0
 50 49  1  0
 51 48  1  0
 51 52  1  1
 53 52  1  0
 54 51  1  0
 55 46  1  0
 55 54  1  6
 55 36  1  0
 56 23  1  0
 57 10  1  0
 57  6  1  0
 58 57  1  0
 58  4  1  0
 58 59  1  1
 60  5  1  0
 61  3  1  0
 62 61  1  0
 63  2  1  0
 64 63  1  0
 64 62  1  0
 64 65  1  1
  3 66  1  6
  7 67  1  6
  8 68  1  1
  9 69  1  1
 70 11  1  0
 71 12  1  0
 72 12  1  0
 73 13  1  0
 74 13  1  0
 75 15  1  0
 76 15  1  0
 77 16  1  0
 78 16  1  0
 79 18  1  0
 80 18  1  0
 81 19  1  0
 82 19  1  0
 83 21  1  0
 84 21  1  0
 85 22  1  0
 86 22  1  0
 87 25  1  0
 88 25  1  0
 89 26  1  0
 90 26  1  0
 91 27  1  0
 92 27  1  0
 93 28  1  0
 94 28  1  0
 31 95  1  6
 32 96  1  6
 33 97  1  6
 34 98  1  6
 99 40  1  0
100 41  1  0
101 41  1  0
102 41  1  0
 43103  1  6
104 44  1  0
105 44  1  0
106 44  1  0
107 45  1  0
108 45  1  0
109 47  1  0
110 50  1  0
111 50  1  0
112 50  1  0
113 53  1  0
114 53  1  0
115 53  1  0
116 54  1  0
117 61  1  0
118 61  1  0
119 62  1  0
120 62  1  0
121 63  1  0
M  END
$$$$
