
     RDKit          3D

121127  0  0  0  0  0  0  0  0999 V2000
  -10.4290   14.9520   -2.0200 O   0  0  0  0  0  0  0  0  0  0  0  0
  -10.8260   14.2140   -2.9640 C   0  0  2  0  0  0  0  0  0  0  0  0
  -10.0950   12.8700   -3.4500 C   0  0  1  0  0  0  0  0  0  0  0  0
   -9.4080   12.1630   -2.3280 N   0  0  0  0  0  0  0  0  0  0  0  0
   -9.9730   11.9950   -1.0730 C   0  0  2  0  0  0  0  0  0  0  0  0
   -8.9540   11.2050   -0.2850 C   0  0  0  0  0  0  0  0  0  0  0  0
   -9.0130   10.7850    1.0440 C   0  0  0  0  0  0  0  0  0  0  0  0
   -8.0680    9.8580    1.4730 C   0  0  0  0  0  0  0  0  0  0  0  0
   -6.9810    9.5020    0.5770 C   0  0  0  0  0  0  0  0  0  0  0  0
   -6.8540   10.1150   -0.6800 C   0  0  1  0  0  0  0  0  0  0  0  0
   -5.8570    9.8350   -1.6140 N   0  0  0  0  0  0  0  0  0  0  0  0
   -5.1380    8.5180   -1.8450 C   0  0  0  0  0  0  0  0  0  0  0  0
   -3.6880    8.3930   -1.3580 C   0  0  0  0  0  0  0  0  0  0  0  0
   -3.3470    6.9420   -1.3920 O   0  0  0  0  0  0  0  0  0  0  0  0
   -2.1080    6.5330   -0.7260 C   0  0  0  0  0  0  0  0  0  0  0  0
   -1.6060    5.1660   -1.1970 C   0  0  0  0  0  0  0  0  0  0  0  0
   -0.3520    4.8130   -0.5980 O   0  0  0  0  0  0  0  0  0  0  0  0
   -0.0100    3.3330   -0.5460 C   0  0  0  0  0  0  0  0  0  0  0  0
    1.3460    3.1940    0.1990 C   0  0  0  0  0  0  0  0  0  0  0  0
    1.5910    1.8100    0.2440 O   0  0  0  0  0  0  0  0  0  0  0  0
    2.7970    1.3420    0.8610 C   0  0  0  0  0  0  0  0  0  0  0  0
    2.8670   -0.1260    0.5940 C   0  0  0  0  0  0  0  0  0  0  0  0
    4.1870   -0.6850    1.0630 C   0  0  1  0  0  0  0  0  0  0  0  0
    4.5240   -1.9350    0.4680 N   0  0  0  0  0  0  0  0  0  0  0  0
    3.5130   -3.0290    0.1900 C   0  0  0  0  0  0  0  0  0  0  0  0
    3.7820   -4.2250    1.1700 C   0  0  0  0  0  0  0  0  0  0  0  0
    5.8780   -2.4540    0.3530 C   0  0  0  0  0  0  0  0  0  0  0  0
    6.1180   -3.7770    1.1550 C   0  0  0  0  0  0  0  0  0  0  0  0
    5.0920   -4.7880    0.8920 N   0  0  0  0  0  0  0  0  0  0  0  0
    5.3230   -6.1340    0.9200 C   0  0  0  0  0  0  0  0  0  0  0  0
    4.5700   -6.8680    0.0250 C   0  0  2  0  0  0  0  0  0  0  0  0
    4.7440   -8.2840   -0.0380 C   0  0  1  0  0  0  0  0  0  0  0  0
    6.2850   -6.8280    1.7250 C   0  0  2  0  0  0  0  0  0  0  0  0
    6.3360   -8.2320    1.7810 C   0  0  0  0  0  0  0  0  0  0  0  0
    5.5190   -8.9700    0.9060 C   0  0  2  0  0  0  0  0  0  0  0  0
    5.5520  -10.4370    0.8530 C   0  0  1  0  0  0  0  0  0  0  0  0
    5.9040  -11.0950   -0.2630 N   0  0  0  0  0  0  0  0  0  0  0  0
    7.2330  -11.2890   -0.6350 N   0  0  0  0  0  0  0  0  0  0  0  0
    7.6000  -10.8910   -1.9170 C   0  0  0  0  0  0  0  0  0  0  0  0
    6.6370  -10.2850   -2.5750 N   0  0  0  0  0  0  0  0  0  0  0  0
    6.6830   -9.7920   -3.9310 C   0  0  0  0  0  0  0  0  0  0  0  0
    8.6890  -11.0710   -2.4450 O   0  0  0  0  0  0  0  0  0  0  0  0
    8.1380  -11.9460    0.3130 C   0  0  1  0  0  0  0  0  0  0  0  0
    9.1790  -11.0020    0.9720 C   0  0  0  0  0  0  0  0  0  0  0  0
    7.3520  -12.8910    1.2950 C   0  0  0  0  0  0  0  0  0  0  0  0
    6.6080  -12.2810    2.4290 C   0  0  2  0  0  0  0  0  0  0  0  0
    6.6910  -12.8650    3.6910 C   0  0  2  0  0  0  0  0  0  0  0  0
    5.9970  -12.3750    4.7830 C   0  0  2  0  0  0  0  0  0  0  0  0
    6.0760  -12.9630    6.0330 O   0  0  0  0  0  0  0  0  0  0  0  0
    7.1600  -13.8020    6.4600 C   0  0  0  0  0  0  0  0  0  0  0  0
    5.0900  -11.3310    4.5920 C   0  0  1  0  0  0  0  0  0  0  0  0
    4.4530  -10.7550    5.6690 O   0  0  0  0  0  0  0  0  0  0  0  0
    3.6240   -9.6450    5.5700 C   0  0  0  0  0  0  0  0  0  0  0  0
    4.9700  -10.7570    3.2940 C   0  0  2  0  0  0  0  0  0  0  0  0
    5.7210  -11.2370    2.2040 C   0  0  1  0  0  0  0  0  0  0  0  0
    4.9330   -0.0830    1.8400 O   0  0  0  0  0  0  0  0  0  0  0  0
   -7.9270   10.9050   -1.1320 C   0  0  0  0  0  0  0  0  0  0  0  0
   -8.1940   11.5540   -2.4420 C   0  0  0  0  0  0  0  0  0  0  0  0
   -7.5170   11.5240   -3.4600 O   0  0  0  0  0  0  0  0  0  0  0  0
  -11.1410   12.3200   -0.7360 O   0  0  0  0  0  0  0  0  0  0  0  0
  -11.0530   11.9170   -4.1570 C   0  0  0  0  0  0  0  0  0  0  0  0
  -11.8170   12.7290   -5.2470 C   0  0  0  0  0  0  0  0  0  0  0  0
  -11.8560   14.6800   -3.7200 N   0  0  0  0  0  0  0  0  0  0  0  0
  -12.5700   13.9280   -4.6270 C   0  0  0  0  0  0  0  0  0  0  0  0
  -13.7030   14.1580   -4.9180 O   0  0  0  0  0  0  0  0  0  0  0  0
   -9.3320   13.1380   -4.1910 H   0  0  0  0  0  0  0  0  0  0  0  0
   -9.8540   11.0380    1.6820 H   0  0  0  0  0  0  0  0  0  0  0  0
   -8.1000    9.4000    2.4570 H   0  0  0  0  0  0  0  0  0  0  0  0
   -6.3280    8.7220    0.9580 H   0  0  0  0  0  0  0  0  0  0  0  0
   -5.9390   10.3530   -2.4800 H   0  0  0  0  0  0  0  0  0  0  0  0
   -5.7310    7.7130   -1.3940 H   0  0  0  0  0  0  0  0  0  0  0  0
   -5.1070    8.2910   -2.9180 H   0  0  0  0  0  0  0  0  0  0  0  0
   -2.9530    8.9230   -1.9750 H   0  0  0  0  0  0  0  0  0  0  0  0
   -3.6480    8.8540   -0.3630 H   0  0  0  0  0  0  0  0  0  0  0  0
   -1.2540    7.1840   -0.9500 H   0  0  0  0  0  0  0  0  0  0  0  0
   -2.2410    6.5100    0.3630 H   0  0  0  0  0  0  0  0  0  0  0  0
   -2.3620    4.3890   -1.0280 H   0  0  0  0  0  0  0  0  0  0  0  0
   -1.4940    5.2330   -2.2860 H   0  0  0  0  0  0  0  0  0  0  0  0
   -0.7900    2.7430   -0.0490 H   0  0  0  0  0  0  0  0  0  0  0  0
    0.0480    2.9550   -1.5740 H   0  0  0  0  0  0  0  0  0  0  0  0
    2.0860    3.6360   -0.4800 H   0  0  0  0  0  0  0  0  0  0  0  0
    1.2610    3.6830    1.1770 H   0  0  0  0  0  0  0  0  0  0  0  0
    3.6740    1.8910    0.4970 H   0  0  0  0  0  0  0  0  0  0  0  0
    2.6850    1.4740    1.9440 H   0  0  0  0  0  0  0  0  0  0  0  0
    2.0360   -0.6280    1.1050 H   0  0  0  0  0  0  0  0  0  0  0  0
    2.8290   -0.3800   -0.4720 H   0  0  0  0  0  0  0  0  0  0  0  0
    2.4960   -2.6520    0.3530 H   0  0  0  0  0  0  0  0  0  0  0  0
    3.6320   -3.2870   -0.8700 H   0  0  0  0  0  0  0  0  0  0  0  0
    3.7860   -3.8430    2.1980 H   0  0  0  0  0  0  0  0  0  0  0  0
    3.0770   -5.0620    1.0980 H   0  0  0  0  0  0  0  0  0  0  0  0
    6.0610   -2.6010   -0.7190 H   0  0  0  0  0  0  0  0  0  0  0  0
    6.5860   -1.7370    0.7870 H   0  0  0  0  0  0  0  0  0  0  0  0
    7.1100   -4.1050    0.8210 H   0  0  0  0  0  0  0  0  0  0  0  0
    6.2650   -3.6210    2.2310 H   0  0  0  0  0  0  0  0  0  0  0  0
    3.9150   -6.3330   -0.6560 H   0  0  0  0  0  0  0  0  0  0  0  0
    4.1850   -8.9000   -0.7370 H   0  0  0  0  0  0  0  0  0  0  0  0
    6.8890   -6.2770    2.4390 H   0  0  0  0  0  0  0  0  0  0  0  0
    6.9850   -8.7990    2.4430 H   0  0  0  0  0  0  0  0  0  0  0  0
    5.7940  -10.1630   -2.0260 H   0  0  0  0  0  0  0  0  0  0  0  0
    7.4290   -8.9890   -3.9880 H   0  0  0  0  0  0  0  0  0  0  0  0
    5.7360   -9.3340   -4.2430 H   0  0  0  0  0  0  0  0  0  0  0  0
    6.9150  -10.6550   -4.5670 H   0  0  0  0  0  0  0  0  0  0  0  0
    8.8050  -12.6020   -0.2610 H   0  0  0  0  0  0  0  0  0  0  0  0
   10.0720  -10.7660    0.3800 H   0  0  0  0  0  0  0  0  0  0  0  0
    9.5910  -11.4720    1.8730 H   0  0  0  0  0  0  0  0  0  0  0  0
    8.6230  -10.1170    1.3050 H   0  0  0  0  0  0  0  0  0  0  0  0
    6.5440  -13.3410    0.7050 H   0  0  0  0  0  0  0  0  0  0  0  0
    7.9540  -13.7330    1.6590 H   0  0  0  0  0  0  0  0  0  0  0  0
    7.4110  -13.6600    3.8610 H   0  0  0  0  0  0  0  0  0  0  0  0
    7.0140  -13.8030    7.5470 H   0  0  0  0  0  0  0  0  0  0  0  0
    8.2070  -13.4990    6.3380 H   0  0  0  0  0  0  0  0  0  0  0  0
    7.1400  -14.8590    6.1660 H   0  0  0  0  0  0  0  0  0  0  0  0
    3.1430   -9.3900    6.5220 H   0  0  0  0  0  0  0  0  0  0  0  0
    2.7990   -9.7990    4.8630 H   0  0  0  0  0  0  0  0  0  0  0  0
    4.3190   -8.8550    5.2600 H   0  0  0  0  0  0  0  0  0  0  0  0
    4.3730   -9.8680    3.1140 H   0  0  0  0  0  0  0  0  0  0  0  0
  -10.4140   11.1150   -4.5480 H   0  0  0  0  0  0  0  0  0  0  0  0
  -11.6510   11.3820   -3.4090 H   0  0  0  0  0  0  0  0  0  0  0  0
  -11.1320   13.1200   -6.0090 H   0  0  0  0  0  0  0  0  0  0  0  0
  -12.5860   12.1190   -5.7390 H   0  0  0  0  0  0  0  0  0  0  0  0
  -12.1820   15.6030   -3.4610 H   0  0  0  0  0  0  0  0  0  0  0  0
  2  1  1  6
  3  2  1  0
  4  3  1  0
  5  4  1  0
  6  5  1  0
  7  6  1  0
  8  7  1  0
  9  8  1  0
 10  9  1  0
 10 11  1  6
 12 11  1  0
 13 12  1  0
 14 13  1  0
 15 14  1  0
 16 15  1  0
 17 16  1  0
 18 17  1  0
 19 18  1  0
 20 19  1  0
 21 20  1  0
 22 21  1  0
 23 22  1  0
 24 23  1  0
 25 24  1  0
 26 25  1  0
 27 24  1  0
 28 27  1  0
 29 26  1  0
 29 28  1  0
 30 29  1  0
 31 30  1  0
 32 31  1  0
 33 30  1  0
 34 33  1  0
 35 32  1  0
 35 34  1  6
 36 35  1  0
 36 37  1  6
 38 37  1  0
 39 38  1  0
 40 39  1  0
 41 40  1  0
 42 39  1  0
 43 38  1  0
 44 43  1  0
 45 43  1  0
 46 45  1  6
 47 46  1  0
 48 47  1  0
 48 49  1  6
 50 49  1  0
 51 48  1  0
 51 52  1  1
 53 52  1  0
 54 51  1  0
 55 54  1  0
 55 46  1  0
 55 36  1  1
 23 56  1  6
 57 10  1  0
 57  6  1  0
 58 57  1  0
 58  4  1  0
 59 58  1  0
  5 60  1  6
 61  3  1  0
 62 61  1  0
 63  2  1  0
 64 63  1  0
 64 62  1  0
 65 64  1  0
  3 66  1  6
 67  7  1  0
 68  8  1  0
 69  9  1  0
 70 11  1  0
 71 12  1  0
 72 12  1  0
 73 13  1  0
 74 13  1  0
 75 15  1  0
 76 15  1  0
 77 16  1  0
 78 16  1  0
 79 18  1  0
 80 18  1  0
 81 19  1  0
 82 19  1  0
 83 21  1  0
 84 21  1  0
 85 22  1  0
 86 22  1  0
 87 25  1  0
 88 25  1  0
 89 26  1  0
 90 26  1  0
 91 27  1  0
 92 27  1  0
 93 28  1  0
 94 28  1  0
 31 95  1  6
 32 96  1  1
 33 97  1  1
 98 34  1  0
 99 40  1  0
100 41  1  0
101 41  1  0
102 41  1  0
 43103  1  6
104 44  1  0
105 44  1  0
106 44  1  0
107 45  1  0
108 45  1  0
 47109  1  1
110 50  1  0
111 50  1  0
112 50  1  0
113 53  1  0
114 53  1  0
115 53  1  0
 54116  1  1
117 61  1  0
118 61  1  0
119 62  1  0
120 62  1  0
121 63  1  0
M  END
$$$$

     RDKit          3D

121127  0  0  0  0  0  0  0  0999 V2000
   -9.5610   14.1040   -1.5550 O   0  0  0  0  0  0  0  0  0  0  0  0
  -10.1140   13.7360   -2.5600 C   0  0  2  0  0  0  0  0  0  0  0  0
   -9.6330   12.5140   -3.3860 C   0  0  1  0  0  0  0  0  0  0  0  0
   -8.9760   11.4990   -2.4600 N   0  0  0  0  0  0  0  0  0  0  0  0
   -9.7370   10.7130   -1.5540 C   0  0  1  0  0  0  0  0  0  0  0  0
   -8.7770    9.7830   -0.8870 C   0  0  1  0  0  0  0  0  0  0  0  0
   -8.9700    8.7700    0.0870 C   0  0  2  0  0  0  0  0  0  0  0  0
   -7.8260    8.0160    0.4860 C   0  0  2  0  0  0  0  0  0  0  0  0
   -6.5740    8.2920   -0.1290 C   0  0  0  0  0  0  0  0  0  0  0  0
   -6.4600    9.3320   -1.0920 C   0  0  0  0  0  0  0  0  0  0  0  0
   -5.2600    9.6380   -1.6560 N   0  0  0  0  0  0  0  0  0  0  0  0
   -4.3300    8.6040   -2.2010 C   0  0  0  0  0  0  0  0  0  0  0  0
   -2.9540    8.5080   -1.4760 C   0  0  0  0  0  0  0  0  0  0  0  0
   -2.2480    7.3650   -1.9820 O   0  0  0  0  0  0  0  0  0  0  0  0
   -0.9800    7.1010   -1.4130 C   0  0  0  0  0  0  0  0  0  0  0  0
   -0.3260    5.9810   -2.2540 C   0  0  0  0  0  0  0  0  0  0  0  0
   -0.5480    4.7120   -1.5690 O   0  0  0  0  0  0  0  0  0  0  0  0
    0.0720    3.6540   -2.2440 C   0  0  0  0  0  0  0  0  0  0  0  0
   -0.2690    2.3820   -1.5360 C   0  0  0  0  0  0  0  0  0  0  0  0
    0.7500    1.4600   -1.7410 O   0  0  0  0  0  0  0  0  0  0  0  0
    1.5130    1.0950   -0.5820 C   0  0  0  0  0  0  0  0  0  0  0  0
    2.2500   -0.2910   -0.7500 C   0  0  0  0  0  0  0  0  0  0  0  0
    2.9220   -0.7400    0.5970 C   0  0  2  0  0  0  0  0  0  0  0  0
    3.6640   -1.9860    0.6040 N   0  0  0  0  0  0  0  0  0  0  0  0
    3.6170   -2.9380   -0.5970 C   0  0  0  0  0  0  0  0  0  0  0  0
    3.0450   -4.3510   -0.1290 C   0  0  0  0  0  0  0  0  0  0  0  0
    4.1820   -2.5190    1.8890 C   0  0  0  0  0  0  0  0  0  0  0  0
    3.6600   -3.9000    2.2650 C   0  0  0  0  0  0  0  0  0  0  0  0
    3.6650   -4.7990    1.1130 N   0  0  0  0  0  0  0  0  0  0  0  0
    4.1020   -6.1240    1.2480 C   0  0  1  0  0  0  0  0  0  0  0  0
    3.2030   -7.2380    1.0850 C   0  0  0  0  0  0  0  0  0  0  0  0
    3.7090   -8.5530    1.1270 C   0  0  0  0  0  0  0  0  0  0  0  0
    5.4840   -6.4480    1.4770 C   0  0  0  0  0  0  0  0  0  0  0  0
    5.9290   -7.7430    1.4710 C   0  0  2  0  0  0  0  0  0  0  0  0
    5.0320   -8.8180    1.3520 C   0  0  1  0  0  0  0  0  0  0  0  0
    5.4600  -10.1870    1.5860 C   0  0  1  0  0  0  0  0  0  0  0  0
    5.4570  -10.9920    0.5640 N   0  0  0  0  0  0  0  0  0  0  0  0
    6.6530  -11.2270   -0.1130 N   0  0  0  0  0  0  0  0  0  0  0  0
    6.7970  -10.7900   -1.4550 C   0  0  2  0  0  0  0  0  0  0  0  0
    5.6230  -10.3040   -2.0780 N   0  0  0  0  0  0  0  0  0  0  0  0
    5.5460   -9.8120   -3.4820 C   0  0  0  0  0  0  0  0  0  0  0  0
    7.8560  -10.9360   -2.0640 O   0  0  0  0  0  0  0  0  0  0  0  0
    7.7800  -11.8730    0.5590 C   0  0  1  0  0  0  0  0  0  0  0  0
    8.9880  -10.9460    0.7690 C   0  0  0  0  0  0  0  0  0  0  0  0
    7.3520  -12.6570    1.9180 C   0  0  0  0  0  0  0  0  0  0  0  0
    7.0570  -11.6970    3.0640 C   0  0  2  0  0  0  0  0  0  0  0  0
    7.6760  -11.9020    4.2840 C   0  0  0  0  0  0  0  0  0  0  0  0
    7.3260  -11.2240    5.4420 C   0  0  0  0  0  0  0  0  0  0  0  0
    7.9520  -11.5000    6.6590 O   0  0  0  0  0  0  0  0  0  0  0  0
    8.5940  -12.7010    7.1200 C   0  0  0  0  0  0  0  0  0  0  0  0
    6.3350  -10.1980    5.3200 C   0  0  1  0  0  0  0  0  0  0  0  0
    6.2700   -9.3130    6.3650 O   0  0  0  0  0  0  0  0  0  0  0  0
    5.4520   -8.1490    6.3430 C   0  0  0  0  0  0  0  0  0  0  0  0
    5.7480   -9.9000    4.0530 C   0  0  0  0  0  0  0  0  0  0  0  0
    6.0750  -10.6500    2.8760 C   0  0  1  0  0  0  0  0  0  0  0  0
    2.7640   -0.0990    1.6230 O   0  0  0  0  0  0  0  0  0  0  0  0
   -7.5940   10.0230   -1.4920 C   0  0  2  0  0  0  0  0  0  0  0  0
   -7.7430   11.1190   -2.5000 C   0  0  0  0  0  0  0  0  0  0  0  0
   -6.8840   11.5620   -3.2130 O   0  0  0  0  0  0  0  0  0  0  0  0
  -10.8970   10.8080   -1.2700 O   0  0  0  0  0  0  0  0  0  0  0  0
  -10.7900   11.8630   -4.2040 C   0  0  0  0  0  0  0  0  0  0  0  0
  -11.7230   12.9430   -4.8990 C   0  0  0  0  0  0  0  0  0  0  0  0
  -11.1220   14.4640   -3.0420 N   0  0  0  0  0  0  0  0  0  0  0  0
  -12.0990   14.1370   -3.9530 C   0  0  2  0  0  0  0  0  0  0  0  0
  -13.1960   14.6900   -3.9860 O   0  0  0  0  0  0  0  0  0  0  0  0
   -8.9220   12.7810   -4.1780 H   0  0  0  0  0  0  0  0  0  0  0  0
   -9.9790    8.5340    0.4100 H   0  0  0  0  0  0  0  0  0  0  0  0
   -7.9060    7.1960    1.1940 H   0  0  0  0  0  0  0  0  0  0  0  0
   -5.7150    7.6900    0.1520 H   0  0  0  0  0  0  0  0  0  0  0  0
   -5.3620   10.4110   -2.3020 H   0  0  0  0  0  0  0  0  0  0  0  0
   -4.8320    7.6350   -2.3100 H   0  0  0  0  0  0  0  0  0  0  0  0
   -4.0940    8.8860   -3.2350 H   0  0  0  0  0  0  0  0  0  0  0  0
   -2.3370    9.4080   -1.5810 H   0  0  0  0  0  0  0  0  0  0  0  0
   -3.0360    8.4290   -0.3840 H   0  0  0  0  0  0  0  0  0  0  0  0
   -0.2240    7.8840   -1.5460 H   0  0  0  0  0  0  0  0  0  0  0  0
   -1.0130    6.7850   -0.3630 H   0  0  0  0  0  0  0  0  0  0  0  0
   -0.7530    5.9630   -3.2640 H   0  0  0  0  0  0  0  0  0  0  0  0
    0.7410    6.1900   -2.3950 H   0  0  0  0  0  0  0  0  0  0  0  0
   -0.2240    3.7040   -3.2990 H   0  0  0  0  0  0  0  0  0  0  0  0
    1.1560    3.7820   -2.1350 H   0  0  0  0  0  0  0  0  0  0  0  0
   -0.4530    2.5730   -0.4710 H   0  0  0  0  0  0  0  0  0  0  0  0
   -1.2130    2.0010   -1.9440 H   0  0  0  0  0  0  0  0  0  0  0  0
    2.1160    1.9660   -0.2960 H   0  0  0  0  0  0  0  0  0  0  0  0
    0.8850    0.8970    0.2960 H   0  0  0  0  0  0  0  0  0  0  0  0
    1.6100   -1.1330   -1.0420 H   0  0  0  0  0  0  0  0  0  0  0  0
    3.0030   -0.2810   -1.5480 H   0  0  0  0  0  0  0  0  0  0  0  0
    3.1340   -2.5240   -1.4900 H   0  0  0  0  0  0  0  0  0  0  0  0
    4.6450   -3.2250   -0.8520 H   0  0  0  0  0  0  0  0  0  0  0  0
    1.9550   -4.3290   -0.0020 H   0  0  0  0  0  0  0  0  0  0  0  0
    3.2990   -5.0230   -0.9580 H   0  0  0  0  0  0  0  0  0  0  0  0
    5.2730   -2.5750    1.9850 H   0  0  0  0  0  0  0  0  0  0  0  0
    3.9000   -1.8710    2.7270 H   0  0  0  0  0  0  0  0  0  0  0  0
    4.3490   -4.2140    3.0580 H   0  0  0  0  0  0  0  0  0  0  0  0
    2.6030   -3.8150    2.5460 H   0  0  0  0  0  0  0  0  0  0  0  0
    2.1640   -6.9390    0.9840 H   0  0  0  0  0  0  0  0  0  0  0  0
    3.0460   -9.3960    0.9570 H   0  0  0  0  0  0  0  0  0  0  0  0
    6.1400   -5.5920    1.6040 H   0  0  0  0  0  0  0  0  0  0  0  0
    6.9520   -8.0100    1.7190 H   0  0  0  0  0  0  0  0  0  0  0  0
    4.8170  -10.2680   -1.4650 H   0  0  0  0  0  0  0  0  0  0  0  0
    6.2840  -10.3170   -4.1180 H   0  0  0  0  0  0  0  0  0  0  0  0
    5.6800   -8.7230   -3.4560 H   0  0  0  0  0  0  0  0  0  0  0  0
    4.5120   -9.9820   -3.8040 H   0  0  0  0  0  0  0  0  0  0  0  0
    8.1570  -12.6070   -0.1650 H   0  0  0  0  0  0  0  0  0  0  0  0
    9.3820  -10.6030   -0.1960 H   0  0  0  0  0  0  0  0  0  0  0  0
    9.7490  -11.4430    1.3830 H   0  0  0  0  0  0  0  0  0  0  0  0
    8.7430  -10.0860    1.4040 H   0  0  0  0  0  0  0  0  0  0  0  0
    6.4170  -13.2000    1.7340 H   0  0  0  0  0  0  0  0  0  0  0  0
    7.9720  -13.4790    2.2990 H   0  0  0  0  0  0  0  0  0  0  0  0
    8.4530  -12.6570    4.3610 H   0  0  0  0  0  0  0  0  0  0  0  0
    9.0230  -12.4930    8.1080 H   0  0  0  0  0  0  0  0  0  0  0  0
    9.3540  -12.9640    6.3740 H   0  0  0  0  0  0  0  0  0  0  0  0
    7.9790  -13.6060    7.2020 H   0  0  0  0  0  0  0  0  0  0  0  0
    5.5300   -7.5800    7.2770 H   0  0  0  0  0  0  0  0  0  0  0  0
    4.4630   -8.5960    6.1820 H   0  0  0  0  0  0  0  0  0  0  0  0
    5.8170   -7.3870    5.6440 H   0  0  0  0  0  0  0  0  0  0  0  0
    5.0950   -9.0330    4.0740 H   0  0  0  0  0  0  0  0  0  0  0  0
  -10.3870   11.2390   -5.0110 H   0  0  0  0  0  0  0  0  0  0  0  0
  -11.5760   11.4620   -3.5520 H   0  0  0  0  0  0  0  0  0  0  0  0
  -11.2110   13.4410   -5.7310 H   0  0  0  0  0  0  0  0  0  0  0  0
  -12.6180   12.4200   -5.2580 H   0  0  0  0  0  0  0  0  0  0  0  0
  -11.3940   15.2380   -2.4480 H   0  0  0  0  0  0  0  0  0  0  0  0
  2  1  1  6
  3  2  1  0
  4  3  1  0
  5  4  1  0
  6  5  1  6
  7  6  1  0
  8  7  1  0
  9  8  1  0
 10  9  1  0
 11 10  1  0
 12 11  1  0
 13 12  1  0
 14 13  1  0
 15 14  1  0
 16 15  1  0
 17 16  1  0
 18 17  1  0
 19 18  1  0
 20 19  1  0
 21 20  1  0
 22 21  1  0
 23 22  1  0
 24 23  1  0
 25 24  1  0
 26 25  1  0
 27 24  1  0
 28 27  1  0
 29 28  1  0
 29 26  1  0
 30 29  1  6
 31 30  1  0
 32 31  1  0
 33 30  1  0
 34 33  1  0
 35 32  1  1
 35 34  1  0
 36 35  1  0
 36 37  1  6
 38 37  1  0
 39 38  1  0
 40 39  1  0
 41 40  1  0
 39 42  1  6
 43 38  1  0
 44 43  1  0
 45 43  1  0
 46 45  1  0
 46 47  1  1
 48 47  1  0
 49 48  1  0
 50 49  1  0
 51 48  1  0
 51 52  1  6
 53 52  1  0
 54 51  1  0
 55 46  1  0
 55 54  1  6
 55 36  1  0
 23 56  1  1
 57 10  1  1
 57  6  1  0
 58 57  1  0
 58  4  1  0
 59 58  1  0
  5 60  1  1
 61  3  1  0
 62 61  1  0
 63  2  1  0
 64 63  1  0
 64 62  1  0
 64 65  1  1
  3 66  1  6
  7 67  1  6
  8 68  1  6
 69  9  1  0
 70 11  1  0
 71 12  1  0
 72 12  1  0
 73 13  1  0
 74 13  1  0
 75 15  1  0
 76 15  1  0
 77 16  1  0
 78 16  1  0
 79 18  1  0
 80 18  1  0
 81 19  1  0
 82 19  1  0
 83 21  1  0
 84 21  1  0
 85 22  1  0
 86 22  1  0
 87 25  1  0
 88 25  1  0
 89 26  1  0
 90 26  1  0
 91 27  1  0
 92 27  1  0
 93 28  1  0
 94 28  1  0
 95 31  1  0
 96 32  1  0
 97 33  1  0
 34 98  1  1
 99 40  1  0
100 41  1  0
101 41  1  0
102 41  1  0
 43103  1  6
104 44  1  0
105 44  1  0
106 44  1  0
107 45  1  0
108 45  1  0
109 47  1  0
110 50  1  0
111 50  1  0
112 50  1  0
113 53  1  0
114 53  1  0
115 53  1  0
116 54  1  0
117 61  1  0
118 61  1  0
119 62  1  0
120 62  1  0
121 63  1  0
M  END
$$$$

     RDKit          3D

121127  0  0  0  0  0  0  0  0999 V2000
   -8.8850   14.5360   -0.3610 O   0  0  0  0  0  0  0  0  0  0  0  0
   -9.5600   14.6310   -1.4010 C   0  0  0  0  0  0  0  0  0  0  0  0
   -9.4870   13.7880   -2.6940 C   0  0  1  0  0  0  0  0  0  0  0  0
   -9.0150   12.4430   -2.3890 N   0  0  0  0  0  0  0  0  0  0  0  0
   -9.7060   11.5770   -1.6060 C   0  0  2  0  0  0  0  0  0  0  0  0
   -8.8830   10.3070   -1.6060 C   0  0  2  0  0  0  0  0  0  0  0  0
   -9.1710    9.1490   -0.9260 C   0  0  1  0  0  0  0  0  0  0  0  0
   -8.1760    8.1020   -1.0660 C   0  0  2  0  0  0  0  0  0  0  0  0
   -7.0500    8.3480   -1.7800 C   0  0  1  0  0  0  0  0  0  0  0  0
   -6.7650    9.5840   -2.3850 C   0  0  2  0  0  0  0  0  0  0  0  0
   -5.4960    9.8600   -2.9180 N   0  0  0  0  0  0  0  0  0  0  0  0
   -4.7930    8.8370   -3.8720 C   0  0  0  0  0  0  0  0  0  0  0  0
   -3.4470    8.3720   -3.2860 C   0  0  0  0  0  0  0  0  0  0  0  0
   -3.0820    7.0370   -3.6390 O   0  0  0  0  0  0  0  0  0  0  0  0
   -1.8470    6.5790   -2.9760 C   0  0  0  0  0  0  0  0  0  0  0  0
   -1.8200    5.0100   -3.0920 C   0  0  0  0  0  0  0  0  0  0  0  0
   -0.8050    4.5380   -2.1270 O   0  0  0  0  0  0  0  0  0  0  0  0
   -0.5180    3.1270   -2.2580 C   0  0  0  0  0  0  0  0  0  0  0  0
    0.5520    2.6300   -1.3210 C   0  0  0  0  0  0  0  0  0  0  0  0
    0.7530    1.1930   -1.5070 O   0  0  0  0  0  0  0  0  0  0  0  0
    1.5370    0.7060   -0.3370 C   0  0  0  0  0  0  0  0  0  0  0  0
    1.8340   -0.8430   -0.6100 C   0  0  0  0  0  0  0  0  0  0  0  0
    2.6260   -1.4240    0.6300 C   0  0  1  0  0  0  0  0  0  0  0  0
    3.3260   -2.5960    0.3600 N   0  0  0  0  0  0  0  0  0  0  0  0
    2.7050   -3.7190   -0.5230 C   0  0  0  0  0  0  0  0  0  0  0  0
    2.4480   -4.9650    0.3760 C   0  0  0  0  0  0  0  0  0  0  0  0
    4.5750   -3.0040    1.1730 C   0  0  0  0  0  0  0  0  0  0  0  0
    4.2600   -4.2440    2.0180 C   0  0  0  0  0  0  0  0  0  0  0  0
    3.6370   -5.3750    1.2190 N   0  0  0  0  0  0  0  0  0  0  0  0
    4.1010   -6.6840    1.4430 C   0  0  2  0  0  0  0  0  0  0  0  0
    3.1730   -7.7380    1.7810 C   0  0  2  0  0  0  0  0  0  0  0  0
    3.7030   -9.0040    1.8780 C   0  0  0  0  0  0  0  0  0  0  0  0
    5.4440   -6.9290    1.5000 C   0  0  1  0  0  0  0  0  0  0  0  0
    5.9690   -8.2320    1.6510 C   0  0  1  0  0  0  0  0  0  0  0  0
    5.0760   -9.2930    1.8810 C   0  0  2  0  0  0  0  0  0  0  0  0
    5.5620  -10.6200    1.8970 C   0  0  1  0  0  0  0  0  0  0  0  0
    5.6350  -11.2930    0.8150 N   0  0  0  0  0  0  0  0  0  0  0  0
    6.7970  -11.2150    0.0800 N   0  0  0  0  0  0  0  0  0  0  0  0
    6.8480  -10.5870   -1.1830 C   0  0  2  0  0  0  0  0  0  0  0  0
    5.6310  -10.0600   -1.5810 N   0  0  0  0  0  0  0  0  0  0  0  0
    5.4340   -9.1180   -2.6370 C   0  0  0  0  0  0  0  0  0  0  0  0
    7.7980  -10.6630   -1.9120 O   0  0  0  0  0  0  0  0  0  0  0  0
    8.0030  -11.9550    0.5820 C   0  0  1  0  0  0  0  0  0  0  0  0
    9.1790  -11.0190    1.0830 C   0  0  0  0  0  0  0  0  0  0  0  0
    7.6530  -12.9930    1.7000 C   0  0  0  0  0  0  0  0  0  0  0  0
    7.1010  -12.3490    3.0500 C   0  0  1  0  0  0  0  0  0  0  0  0
    7.8400  -12.6350    4.2130 C   0  0  0  0  0  0  0  0  0  0  0  0
    7.5820  -12.0530    5.4350 C   0  0  1  0  0  0  0  0  0  0  0  0
    8.2250  -12.3380    6.6170 O   0  0  0  0  0  0  0  0  0  0  0  0
    9.3750  -13.1000    6.5720 C   0  0  0  0  0  0  0  0  0  0  0  0
    6.6720  -11.0180    5.5310 C   0  0  2  0  0  0  0  0  0  0  0  0
    6.4900  -10.4390    6.7280 O   0  0  0  0  0  0  0  0  0  0  0  0
    5.6030   -9.3530    7.0980 C   0  0  0  0  0  0  0  0  0  0  0  0
    5.8770  -10.6450    4.3720 C   0  0  0  0  0  0  0  0  0  0  0  0
    6.1920  -11.2440    3.0710 C   0  0  0  0  0  0  0  0  0  0  0  0
    2.7060   -0.8150    1.6850 O   0  0  0  0  0  0  0  0  0  0  0  0
   -7.7470   10.5560   -2.3130 C   0  0  0  0  0  0  0  0  0  0  0  0
   -7.8560   11.8870   -2.8720 C   0  0  2  0  0  0  0  0  0  0  0  0
   -6.9910   12.4550   -3.5170 O   0  0  0  0  0  0  0  0  0  0  0  0
  -10.8270   11.7620   -1.1130 O   0  0  0  0  0  0  0  0  0  0  0  0
  -10.8040   13.8060   -3.5550 C   0  0  0  0  0  0  0  0  0  0  0  0
  -11.5380   15.1660   -3.5580 C   0  0  0  0  0  0  0  0  0  0  0  0
  -10.4190   15.6260   -1.3990 N   0  0  0  0  0  0  0  0  0  0  0  0
  -11.3100   16.0270   -2.3450 C   0  0  2  0  0  0  0  0  0  0  0  0
  -12.0060   16.9870   -2.1660 O   0  0  0  0  0  0  0  0  0  0  0  0
   -8.7550   14.3400   -3.2950 H   0  0  0  0  0  0  0  0  0  0  0  0
  -10.0330    9.0670   -0.2700 H   0  0  0  0  0  0  0  0  0  0  0  0
   -8.4400    7.0990   -0.7420 H   0  0  0  0  0  0  0  0  0  0  0  0
   -6.3090    7.5540   -1.7840 H   0  0  0  0  0  0  0  0  0  0  0  0
   -5.3770   10.8400   -3.1430 H   0  0  0  0  0  0  0  0  0  0  0  0
   -5.5420    8.0630   -4.0830 H   0  0  0  0  0  0  0  0  0  0  0  0
   -4.5650    9.4030   -4.7840 H   0  0  0  0  0  0  0  0  0  0  0  0
   -2.6790    9.1420   -3.4300 H   0  0  0  0  0  0  0  0  0  0  0  0
   -3.5320    8.4590   -2.1960 H   0  0  0  0  0  0  0  0  0  0  0  0
   -0.9480    6.8970   -3.5190 H   0  0  0  0  0  0  0  0  0  0  0  0
   -1.7830    6.8400   -1.9130 H   0  0  0  0  0  0  0  0  0  0  0  0
   -2.8130    4.5470   -3.0490 H   0  0  0  0  0  0  0  0  0  0  0  0
   -1.4670    4.7050   -4.0850 H   0  0  0  0  0  0  0  0  0  0  0  0
   -1.4610    2.5960   -2.0780 H   0  0  0  0  0  0  0  0  0  0  0  0
   -0.2410    2.8670   -3.2870 H   0  0  0  0  0  0  0  0  0  0  0  0
    1.4510    3.1310   -1.7000 H   0  0  0  0  0  0  0  0  0  0  0  0
    0.4360    2.8500   -0.2530 H   0  0  0  0  0  0  0  0  0  0  0  0
    2.5050    1.2180   -0.2660 H   0  0  0  0  0  0  0  0  0  0  0  0
    1.0040    0.9540    0.5890 H   0  0  0  0  0  0  0  0  0  0  0  0
    0.8300   -1.2700   -0.7240 H   0  0  0  0  0  0  0  0  0  0  0  0
    2.4340   -1.0110   -1.5130 H   0  0  0  0  0  0  0  0  0  0  0  0
    1.7600   -3.3980   -0.9790 H   0  0  0  0  0  0  0  0  0  0  0  0
    3.3780   -3.9590   -1.3550 H   0  0  0  0  0  0  0  0  0  0  0  0
    1.6230   -4.8030    1.0800 H   0  0  0  0  0  0  0  0  0  0  0  0
    2.2610   -5.7550   -0.3610 H   0  0  0  0  0  0  0  0  0  0  0  0
    5.4690   -3.2740    0.5980 H   0  0  0  0  0  0  0  0  0  0  0  0
    4.8960   -2.1600    1.7960 H   0  0  0  0  0  0  0  0  0  0  0  0
    5.0510   -4.5080    2.7310 H   0  0  0  0  0  0  0  0  0  0  0  0
    3.5320   -3.8660    2.7470 H   0  0  0  0  0  0  0  0  0  0  0  0
    2.0930   -7.6310    1.8110 H   0  0  0  0  0  0  0  0  0  0  0  0
    3.0230   -9.8470    1.9480 H   0  0  0  0  0  0  0  0  0  0  0  0
    6.0620   -6.0920    1.1890 H   0  0  0  0  0  0  0  0  0  0  0  0
    7.0180   -8.3770    1.4090 H   0  0  0  0  0  0  0  0  0  0  0  0
    4.8210  -10.2380   -1.0000 H   0  0  0  0  0  0  0  0  0  0  0  0
    6.3570   -9.2120   -3.2220 H   0  0  0  0  0  0  0  0  0  0  0  0
    5.2840   -8.0860   -2.2970 H   0  0  0  0  0  0  0  0  0  0  0  0
    4.6040   -9.3190   -3.3250 H   0  0  0  0  0  0  0  0  0  0  0  0
    8.4150  -12.5600   -0.2350 H   0  0  0  0  0  0  0  0  0  0  0  0
   10.1330  -11.5530    1.1740 H   0  0  0  0  0  0  0  0  0  0  0  0
    8.8730  -10.6660    2.0750 H   0  0  0  0  0  0  0  0  0  0  0  0
    9.3260  -10.1390    0.4440 H   0  0  0  0  0  0  0  0  0  0  0  0
    6.8690  -13.6330    1.2770 H   0  0  0  0  0  0  0  0  0  0  0  0
    8.4840  -13.6990    1.8200 H   0  0  0  0  0  0  0  0  0  0  0  0
    8.4890  -13.5020    4.1250 H   0  0  0  0  0  0  0  0  0  0  0  0
    9.8390  -13.0190    7.5620 H   0  0  0  0  0  0  0  0  0  0  0  0
   10.0730  -12.5820    5.9020 H   0  0  0  0  0  0  0  0  0  0  0  0
    9.2490  -14.1840    6.4680 H   0  0  0  0  0  0  0  0  0  0  0  0
    5.7120   -9.2370    8.1830 H   0  0  0  0  0  0  0  0  0  0  0  0
    4.5780   -9.6070    6.8020 H   0  0  0  0  0  0  0  0  0  0  0  0
    5.8790   -8.4730    6.5030 H   0  0  0  0  0  0  0  0  0  0  0  0
    5.0920   -9.9170    4.5530 H   0  0  0  0  0  0  0  0  0  0  0  0
  -10.5240   13.5200   -4.5770 H   0  0  0  0  0  0  0  0  0  0  0  0
  -11.4770   13.0140   -3.2040 H   0  0  0  0  0  0  0  0  0  0  0  0
  -11.2700   15.7690   -4.4350 H   0  0  0  0  0  0  0  0  0  0  0  0
  -12.6240   15.0240   -3.6110 H   0  0  0  0  0  0  0  0  0  0  0  0
  -10.4580   16.0970   -0.5030 H   0  0  0  0  0  0  0  0  0  0  0  0
  2  1  1  0
  3  2  1  0
  4  3  1  0
  5  4  1  0
  6  5  1  0
  7  6  1  0
  8  7  1  0
  9  8  1  0
 10  9  1  0
 10 11  1  1
 12 11  1  0
 13 12  1  0
 14 13  1  0
 15 14  1  0
 16 15  1  0
 17 16  1  0
 18 17  1  0
 19 18  1  0
 20 19  1  0
 21 20  1  0
 22 21  1  0
 23 22  1  0
 24 23  1  0
 25 24  1  0
 26 25  1  0
 27 24  1  0
 28 27  1  0
 29 28  1  0
 29 26  1  0
 30 29  1  1
 31 30  1  0
 32 31  1  0
 33 30  1  0
 34 33  1  0
 35 32  1  6
 35 34  1  0
 36 35  1  0
 36 37  1  6
 38 37  1  0
 39 38  1  0
 40 39  1  0
 41 40  1  0
 39 42  1  6
 43 38  1  0
 44 43  1  0
 45 43  1  0
 46 45  1  0
 46 47  1  1
 48 47  1  0
 48 49  1  6
 50 49  1  0
 51 48  1  0
 51 52  1  1
 53 52  1  0
 54 51  1  0
 55 46  1  0
 55 54  1  0
 55 36  1  0
 23 56  1  6
 57 10  1  0
  6 57  1  1
 58 57  1  0
 58  4  1  0
 58 59  1  1
  5 60  1  6
 61  3  1  0
 62 61  1  0
 63  2  1  0
 64 62  1  0
 64 63  1  0
 64 65  1  1
  3 66  1  6
  7 67  1  1
  8 68  1  6
  9 69  1  1
 70 11  1  0
 71 12  1  0
 72 12  1  0
 73 13  1  0
 74 13  1  0
 75 15  1  0
 76 15  1  0
 77 16  1  0
 78 16  1  0
 79 18  1  0
 80 18  1  0
 81 19  1  0
 82 19  1  0
 83 21  1  0
 84 21  1  0
 85 22  1  0
 86 22  1  0
 87 25  1  0
 88 25  1  0
 89 26  1  0
 90 26  1  0
 91 27  1  0
 92 27  1  0
 93 28  1  0
 94 28  1  0
 31 95  1  6
 96 32  1  0
 33 97  1  6
 34 98  1  6
 99 40  1  0
100 41  1  0
101 41  1  0
102 41  1  0
 43103  1  6
104 44  1  0
105 44  1  0
106 44  1  0
107 45  1  0
108 45  1  0
109 47  1  0
110 50  1  0
111 50  1  0
112 50  1  0
113 53  1  0
114 53  1  0
115 53  1  0
116 54  1  0
117 61  1  0
118 61  1  0
119 62  1  0
120 62  1  0
121 63  1  0
M  END
$$$$
